Aurachin D
     RDKit          3D

 27 28  0  0  0  0  0  0  0  0999 V2000
   -4.7807   -0.7765   -2.2886 C   0  0  0  0  0  0  0  0  0  0  0  0
   -4.2984   -0.1017   -1.0324 C   0  0  0  0  0  0  0  0  0  0  0  0
   -3.3017   -0.6941   -0.2192 C   0  0  0  0  0  0  0  0  0  0  0  0
   -2.8982   -0.0261    0.9542 C   0  0  0  0  0  0  0  0  0  0  0  0
   -2.0190   -0.5392    1.7027 O   0  0  0  0  0  0  0  0  0  0  0  0
   -3.4725    1.2067    1.2973 C   0  0  0  0  0  0  0  0  0  0  0  0
   -3.0793    1.9068    2.4539 C   0  0  0  0  0  0  0  0  0  0  0  0
   -3.6575    3.1403    2.7624 C   0  0  0  0  0  0  0  0  0  0  0  0
   -4.6311    3.6889    1.9238 C   0  0  0  0  0  0  0  0  0  0  0  0
   -5.0359    3.0014    0.7781 C   0  0  0  0  0  0  0  0  0  0  0  0
   -4.4630    1.7588    0.4560 C   0  0  0  0  0  0  0  0  0  0  0  0
   -4.8571    1.0895   -0.6642 N   0  0  0  0  0  0  0  0  0  0  0  0
   -2.5986   -1.9728   -0.6343 C   0  0  0  0  0  0  0  0  0  0  0  0
   -1.4416   -1.6511   -1.5530 C   0  0  0  0  0  0  0  0  0  0  0  0
   -0.3521   -2.4399   -1.7072 C   0  0  0  0  0  0  0  0  0  0  0  0
   -0.1693   -3.7014   -0.9008 C   0  0  0  0  0  0  0  0  0  0  0  0
    0.7146   -2.0422   -2.7098 C   0  0  0  0  0  0  0  0  0  0  0  0
    1.5789   -0.8719   -2.2154 C   0  0  0  0  0  0  0  0  0  0  0  0
    2.4641   -1.3005   -1.0702 C   0  0  0  0  0  0  0  0  0  0  0  0
    2.2930   -0.9285    0.2195 C   0  0  0  0  0  0  0  0  0  0  0  0
    1.1961    0.0260    0.6334 C   0  0  0  0  0  0  0  0  0  0  0  0
    3.2079   -1.5078    1.2814 C   0  0  0  0  0  0  0  0  0  0  0  0
    4.5916   -0.8472    1.2810 C   0  0  0  0  0  0  0  0  0  0  0  0
    4.5200    0.5773    1.7777 C   0  0  0  0  0  0  0  0  0  0  0  0
    4.7084    1.6739    1.0053 C   0  0  0  0  0  0  0  0  0  0  0  0
    5.0086    1.5764   -0.4694 C   0  0  0  0  0  0  0  0  0  0  0  0
    4.6059    3.0296    1.6454 C   0  0  0  0  0  0  0  0  0  0  0  0
  1  2  1  0
  2  3  4  0
  3  4  4  0
  4  5  2  0
  4  6  4  0
  6  7  4  0
  7  8  4  0
  8  9  4  0
  9 10  4  0
 10 11  4  0
 11 12  4  0
  3 13  1  0
 13 14  1  0
 14 15  2  0
 15 16  1  0
 15 17  1  0
 17 18  1  0
 18 19  1  0
 19 20  2  0
 20 21  1  0
 20 22  1  0
 22 23  1  0
 23 24  1  0
 24 25  2  3
 25 26  1  0
 25 27  1  0
 12  2  4  0
 11  6  4  0
M  END
>  <SMILES>  (1) 
CC1=C(C(=O)C2=CC=CC=C2N1)C/C=C(\C)/CC/C=C(\C)/CCC=C(C)C

>  <NumConformers>  (1) 
11

>  <EnergyUnits>  (1) 
RDKit_forcefield

>  <Processing_Time>  (1) 
143.5s

>  <Original_Conformers>  (1) 
150

>  <Total_Conformers>  (1) 
11

>  <Energy>  (1) 
49.531304179399172

>  <Energy_Unit>  (1) 
RDKit_forcefield

>  <Rank>  (1) 
1

>  <Conformer_Index>  (1) 
0

$$$$
Aurachin D
     RDKit          3D

 27 28  0  0  0  0  0  0  0  0999 V2000
   -3.9991   -1.8747    0.5433 C   0  0  0  0  0  0  0  0  0  0  0  0
   -4.6708   -0.5875    0.1326 C   0  0  0  0  0  0  0  0  0  0  0  0
   -4.2555    0.1302   -1.0192 C   0  0  0  0  0  0  0  0  0  0  0  0
   -4.8867    1.3548   -1.3167 C   0  0  0  0  0  0  0  0  0  0  0  0
   -4.4957    2.0371   -2.3037 O   0  0  0  0  0  0  0  0  0  0  0  0
   -5.9572    1.8085   -0.5262 C   0  0  0  0  0  0  0  0  0  0  0  0
   -6.6255    3.0183   -0.8092 C   0  0  0  0  0  0  0  0  0  0  0  0
   -7.6969    3.4335   -0.0131 C   0  0  0  0  0  0  0  0  0  0  0  0
   -8.1140    2.6529    1.0671 C   0  0  0  0  0  0  0  0  0  0  0  0
   -7.4502    1.4614    1.3665 C   0  0  0  0  0  0  0  0  0  0  0  0
   -6.3711    1.0291    0.5749 C   0  0  0  0  0  0  0  0  0  0  0  0
   -5.7187   -0.1267    0.8767 N   0  0  0  0  0  0  0  0  0  0  0  0
   -3.1166   -0.3718   -1.8876 C   0  0  0  0  0  0  0  0  0  0  0  0
   -1.7856    0.0114   -1.2884 C   0  0  0  0  0  0  0  0  0  0  0  0
   -0.6284   -0.6130   -1.5937 C   0  0  0  0  0  0  0  0  0  0  0  0
   -0.5861   -1.7399   -2.6018 C   0  0  0  0  0  0  0  0  0  0  0  0
    0.6486   -0.1687   -0.9152 C   0  0  0  0  0  0  0  0  0  0  0  0
    0.5968   -0.4432    0.5918 C   0  0  0  0  0  0  0  0  0  0  0  0
    1.9473   -0.1977    1.2123 C   0  0  0  0  0  0  0  0  0  0  0  0
    2.8915   -1.1505    1.3758 C   0  0  0  0  0  0  0  0  0  0  0  0
    2.6379   -2.5958    1.0151 C   0  0  0  0  0  0  0  0  0  0  0  0
    4.2515   -0.7563    1.8971 C   0  0  0  0  0  0  0  0  0  0  0  0
    5.1313   -0.2825    0.7355 C   0  0  0  0  0  0  0  0  0  0  0  0
    6.5350    0.0211    1.2013 C   0  0  0  0  0  0  0  0  0  0  0  0
    7.4816    0.5246    0.3774 C   0  0  0  0  0  0  0  0  0  0  0  0
    7.1840    0.8435   -1.0729 C   0  0  0  0  0  0  0  0  0  0  0  0
    8.8667    0.7683    0.9158 C   0  0  0  0  0  0  0  0  0  0  0  0
  1  2  1  0
  2  3  4  0
  3  4  4  0
  4  5  2  0
  4  6  4  0
  6  7  4  0
  7  8  4  0
  8  9  4  0
  9 10  4  0
 10 11  4  0
 11 12  4  0
  3 13  1  0
 13 14  1  0
 14 15  2  0
 15 16  1  0
 15 17  1  0
 17 18  1  0
 18 19  1  0
 19 20  2  0
 20 21  1  0
 20 22  1  0
 22 23  1  0
 23 24  1  0
 24 25  2  3
 25 26  1  0
 25 27  1  0
 12  2  4  0
 11  6  4  0
M  END
>  <SMILES>  (2) 
CC1=C(C(=O)C2=CC=CC=C2N1)C/C=C(\C)/CC/C=C(\C)/CCC=C(C)C

>  <NumConformers>  (2) 
11

>  <EnergyUnits>  (2) 
RDKit_forcefield

>  <Processing_Time>  (2) 
143.5s

>  <Original_Conformers>  (2) 
150

>  <Total_Conformers>  (2) 
11

>  <Energy>  (2) 
49.600067693509502

>  <Energy_Unit>  (2) 
RDKit_forcefield

>  <Rank>  (2) 
2

>  <Conformer_Index>  (2) 
1

$$$$
Aurachin D
     RDKit          3D

 27 28  0  0  0  0  0  0  0  0999 V2000
   -5.2529   -1.6080   -1.3552 C   0  0  0  0  0  0  0  0  0  0  0  0
   -4.6086   -0.5319   -0.5142 C   0  0  0  0  0  0  0  0  0  0  0  0
   -3.4269   -0.7867    0.2238 C   0  0  0  0  0  0  0  0  0  0  0  0
   -2.8679    0.2560    0.9916 C   0  0  0  0  0  0  0  0  0  0  0  0
   -1.8062    0.0551    1.6445 O   0  0  0  0  0  0  0  0  0  0  0  0
   -3.4901    1.5160    1.0323 C   0  0  0  0  0  0  0  0  0  0  0  0
   -2.9594    2.5817    1.7842 C   0  0  0  0  0  0  0  0  0  0  0  0
   -3.6053    3.8199    1.8089 C   0  0  0  0  0  0  0  0  0  0  0  0
   -4.7863    4.0074    1.0896 C   0  0  0  0  0  0  0  0  0  0  0  0
   -5.3273    2.9601    0.3410 C   0  0  0  0  0  0  0  0  0  0  0  0
   -4.6852    1.7110    0.3046 C   0  0  0  0  0  0  0  0  0  0  0  0
   -5.2065    0.6939   -0.4365 N   0  0  0  0  0  0  0  0  0  0  0  0
   -2.7066   -2.1203    0.1348 C   0  0  0  0  0  0  0  0  0  0  0  0
   -1.7418   -2.1167   -1.0272 C   0  0  0  0  0  0  0  0  0  0  0  0
   -0.6024   -2.8445   -1.0732 C   0  0  0  0  0  0  0  0  0  0  0  0
   -0.1340   -3.6678    0.1040 C   0  0  0  0  0  0  0  0  0  0  0  0
    0.2310   -2.8265   -2.3398 C   0  0  0  0  0  0  0  0  0  0  0  0
    1.0469   -1.5318   -2.4801 C   0  0  0  0  0  0  0  0  0  0  0  0
    2.2304   -1.5283   -1.5411 C   0  0  0  0  0  0  0  0  0  0  0  0
    2.3453   -0.7515   -0.4379 C   0  0  0  0  0  0  0  0  0  0  0  0
    1.2707    0.2306   -0.0493 C   0  0  0  0  0  0  0  0  0  0  0  0
    3.5633   -0.9086    0.4487 C   0  0  0  0  0  0  0  0  0  0  0  0
    4.8054   -0.2463   -0.1662 C   0  0  0  0  0  0  0  0  0  0  0  0
    4.7476    1.2609   -0.0775 C   0  0  0  0  0  0  0  0  0  0  0  0
    5.2013    1.9780    0.9775 C   0  0  0  0  0  0  0  0  0  0  0  0
    5.0976    3.4814    0.9205 C   0  0  0  0  0  0  0  0  0  0  0  0
    5.8402    1.3217    2.1801 C   0  0  0  0  0  0  0  0  0  0  0  0
  1  2  1  0
  2  3  4  0
  3  4  4  0
  4  5  2  0
  4  6  4  0
  6  7  4  0
  7  8  4  0
  8  9  4  0
  9 10  4  0
 10 11  4  0
 11 12  4  0
  3 13  1  0
 13 14  1  0
 14 15  2  0
 15 16  1  0
 15 17  1  0
 17 18  1  0
 18 19  1  0
 19 20  2  0
 20 21  1  0
 20 22  1  0
 22 23  1  0
 23 24  1  0
 24 25  2  3
 25 26  1  0
 25 27  1  0
 12  2  4  0
 11  6  4  0
M  END
>  <SMILES>  (3) 
CC1=C(C(=O)C2=CC=CC=C2N1)C/C=C(\C)/CC/C=C(\C)/CCC=C(C)C

>  <NumConformers>  (3) 
11

>  <EnergyUnits>  (3) 
RDKit_forcefield

>  <Processing_Time>  (3) 
143.5s

>  <Original_Conformers>  (3) 
150

>  <Total_Conformers>  (3) 
11

>  <Energy>  (3) 
50.360449100398036

>  <Energy_Unit>  (3) 
RDKit_forcefield

>  <Rank>  (3) 
3

>  <Conformer_Index>  (3) 
2

$$$$
Aurachin D
     RDKit          3D

 27 28  0  0  0  0  0  0  0  0999 V2000
   -2.7268    0.9176   -2.1459 C   0  0  0  0  0  0  0  0  0  0  0  0
   -3.8192    0.8307   -1.1104 C   0  0  0  0  0  0  0  0  0  0  0  0
   -3.9359   -0.2909   -0.2505 C   0  0  0  0  0  0  0  0  0  0  0  0
   -4.9730   -0.3062    0.7065 C   0  0  0  0  0  0  0  0  0  0  0  0
   -5.0817   -1.2790    1.5032 O   0  0  0  0  0  0  0  0  0  0  0  0
   -5.8885    0.7592    0.7720 C   0  0  0  0  0  0  0  0  0  0  0  0
   -6.9423    0.7712    1.7065 C   0  0  0  0  0  0  0  0  0  0  0  0
   -7.8429    1.8394    1.7395 C   0  0  0  0  0  0  0  0  0  0  0  0
   -7.7064    2.9032    0.8463 C   0  0  0  0  0  0  0  0  0  0  0  0
   -6.6642    2.9082   -0.0827 C   0  0  0  0  0  0  0  0  0  0  0  0
   -5.7508    1.8391   -0.1305 C   0  0  0  0  0  0  0  0  0  0  0  0
   -4.7348    1.8420   -1.0384 N   0  0  0  0  0  0  0  0  0  0  0  0
   -2.9265   -1.4222   -0.2888 C   0  0  0  0  0  0  0  0  0  0  0  0
   -1.7506   -1.1291    0.6165 C   0  0  0  0  0  0  0  0  0  0  0  0
   -0.6243   -1.8808    0.6374 C   0  0  0  0  0  0  0  0  0  0  0  0
   -0.4450   -3.0538   -0.2948 C   0  0  0  0  0  0  0  0  0  0  0  0
    0.4768   -1.5485    1.6285 C   0  0  0  0  0  0  0  0  0  0  0  0
    1.3282   -0.3552    1.1682 C   0  0  0  0  0  0  0  0  0  0  0  0
    2.1245   -0.6705   -0.0764 C   0  0  0  0  0  0  0  0  0  0  0  0
    3.3362   -1.2836   -0.0811 C   0  0  0  0  0  0  0  0  0  0  0  0
    4.0325   -1.7012    1.1945 C   0  0  0  0  0  0  0  0  0  0  0  0
    4.0238   -1.5458   -1.4052 C   0  0  0  0  0  0  0  0  0  0  0  0
    4.7246   -0.2916   -1.9364 C   0  0  0  0  0  0  0  0  0  0  0  0
    5.9575    0.0340   -1.1242 C   0  0  0  0  0  0  0  0  0  0  0  0
    6.0655    1.0812   -0.2719 C   0  0  0  0  0  0  0  0  0  0  0  0
    4.9605    2.0968   -0.1069 C   0  0  0  0  0  0  0  0  0  0  0  0
    7.3522    1.2960    0.4830 C   0  0  0  0  0  0  0  0  0  0  0  0
  1  2  1  0
  2  3  4  0
  3  4  4  0
  4  5  2  0
  4  6  4  0
  6  7  4  0
  7  8  4  0
  8  9  4  0
  9 10  4  0
 10 11  4  0
 11 12  4  0
  3 13  1  0
 13 14  1  0
 14 15  2  0
 15 16  1  0
 15 17  1  0
 17 18  1  0
 18 19  1  0
 19 20  2  0
 20 21  1  0
 20 22  1  0
 22 23  1  0
 23 24  1  0
 24 25  2  3
 25 26  1  0
 25 27  1  0
 12  2  4  0
 11  6  4  0
M  END
>  <SMILES>  (4) 
CC1=C(C(=O)C2=CC=CC=C2N1)C/C=C(\C)/CC/C=C(\C)/CCC=C(C)C

>  <NumConformers>  (4) 
11

>  <EnergyUnits>  (4) 
RDKit_forcefield

>  <Processing_Time>  (4) 
143.5s

>  <Original_Conformers>  (4) 
150

>  <Total_Conformers>  (4) 
11

>  <Energy>  (4) 
50.414272484965807

>  <Energy_Unit>  (4) 
RDKit_forcefield

>  <Rank>  (4) 
4

>  <Conformer_Index>  (4) 
3

$$$$
Aurachin D
     RDKit          3D

 27 28  0  0  0  0  0  0  0  0999 V2000
   -2.7972    1.5821   -1.5832 C   0  0  0  0  0  0  0  0  0  0  0  0
   -4.0137    1.0490   -0.8675 C   0  0  0  0  0  0  0  0  0  0  0  0
   -4.0840   -0.3001   -0.4390 C   0  0  0  0  0  0  0  0  0  0  0  0
   -5.2235   -0.7241    0.2765 C   0  0  0  0  0  0  0  0  0  0  0  0
   -5.2989   -1.9090    0.7008 O   0  0  0  0  0  0  0  0  0  0  0  0
   -6.2803    0.1716    0.5165 C   0  0  0  0  0  0  0  0  0  0  0  0
   -7.4293   -0.2158    1.2370 C   0  0  0  0  0  0  0  0  0  0  0  0
   -8.4610    0.7009    1.4593 C   0  0  0  0  0  0  0  0  0  0  0  0
   -8.3638    2.0044    0.9697 C   0  0  0  0  0  0  0  0  0  0  0  0
   -7.2239    2.4041    0.2690 C   0  0  0  0  0  0  0  0  0  0  0  0
   -6.1756    1.4964    0.0412 C   0  0  0  0  0  0  0  0  0  0  0  0
   -5.0640    1.8900   -0.6402 N   0  0  0  0  0  0  0  0  0  0  0  0
   -2.9154   -1.2474   -0.6360 C   0  0  0  0  0  0  0  0  0  0  0  0
   -1.9277   -1.0840    0.4943 C   0  0  0  0  0  0  0  0  0  0  0  0
   -0.6479   -1.5162    0.4409 C   0  0  0  0  0  0  0  0  0  0  0  0
   -0.1058   -2.2325   -0.7740 C   0  0  0  0  0  0  0  0  0  0  0  0
    0.2502   -1.2859    1.6399 C   0  0  0  0  0  0  0  0  0  0  0  0
    0.6714    0.1856    1.7558 C   0  0  0  0  0  0  0  0  0  0  0  0
    1.7345    0.5221    0.7374 C   0  0  0  0  0  0  0  0  0  0  0  0
    3.0652    0.4346    0.9729 C   0  0  0  0  0  0  0  0  0  0  0  0
    3.6036   -0.0116    2.3119 C   0  0  0  0  0  0  0  0  0  0  0  0
    4.0517    0.7089   -0.1412 C   0  0  0  0  0  0  0  0  0  0  0  0
    4.5055   -0.6076   -0.7788 C   0  0  0  0  0  0  0  0  0  0  0  0
    5.6121   -0.3800   -1.7772 C   0  0  0  0  0  0  0  0  0  0  0  0
    6.9251   -0.2729   -1.4656 C   0  0  0  0  0  0  0  0  0  0  0  0
    7.9123   -0.0670   -2.5867 C   0  0  0  0  0  0  0  0  0  0  0  0
    7.4263   -0.3591   -0.0407 C   0  0  0  0  0  0  0  0  0  0  0  0
  1  2  1  0
  2  3  4  0
  3  4  4  0
  4  5  2  0
  4  6  4  0
  6  7  4  0
  7  8  4  0
  8  9  4  0
  9 10  4  0
 10 11  4  0
 11 12  4  0
  3 13  1  0
 13 14  1  0
 14 15  2  0
 15 16  1  0
 15 17  1  0
 17 18  1  0
 18 19  1  0
 19 20  2  0
 20 21  1  0
 20 22  1  0
 22 23  1  0
 23 24  1  0
 24 25  2  3
 25 26  1  0
 25 27  1  0
 12  2  4  0
 11  6  4  0
M  END
>  <SMILES>  (5) 
CC1=C(C(=O)C2=CC=CC=C2N1)C/C=C(\C)/CC/C=C(\C)/CCC=C(C)C

>  <NumConformers>  (5) 
11

>  <EnergyUnits>  (5) 
RDKit_forcefield

>  <Processing_Time>  (5) 
143.5s

>  <Original_Conformers>  (5) 
150

>  <Total_Conformers>  (5) 
11

>  <Energy>  (5) 
50.467367011819917

>  <Energy_Unit>  (5) 
RDKit_forcefield

>  <Rank>  (5) 
5

>  <Conformer_Index>  (5) 
4

$$$$
Aurachin D
     RDKit          3D

 27 28  0  0  0  0  0  0  0  0999 V2000
   -3.1747    0.2608   -2.4972 C   0  0  0  0  0  0  0  0  0  0  0  0
   -4.1062    0.4359   -1.3245 C   0  0  0  0  0  0  0  0  0  0  0  0
   -3.9840   -0.3716   -0.1665 C   0  0  0  0  0  0  0  0  0  0  0  0
   -4.8571   -0.1410    0.9176 C   0  0  0  0  0  0  0  0  0  0  0  0
   -4.7414   -0.8255    1.9739 O   0  0  0  0  0  0  0  0  0  0  0  0
   -5.8650    0.8349    0.8141 C   0  0  0  0  0  0  0  0  0  0  0  0
   -6.7774    1.0636    1.8580 C   0  0  0  0  0  0  0  0  0  0  0  0
   -7.7720    2.0351    1.7255 C   0  0  0  0  0  0  0  0  0  0  0  0
   -7.8749    2.7750    0.5441 C   0  0  0  0  0  0  0  0  0  0  0  0
   -6.9811    2.5554   -0.5064 C   0  0  0  0  0  0  0  0  0  0  0  0
   -5.9711    1.5867   -0.3779 C   0  0  0  0  0  0  0  0  0  0  0  0
   -5.0920    1.3759   -1.3963 N   0  0  0  0  0  0  0  0  0  0  0  0
   -2.9155   -1.4457   -0.0630 C   0  0  0  0  0  0  0  0  0  0  0  0
   -1.5866   -0.8328    0.3031 C   0  0  0  0  0  0  0  0  0  0  0  0
   -0.3997   -1.2472   -0.1891 C   0  0  0  0  0  0  0  0  0  0  0  0
   -0.2874   -2.3810   -1.1788 C   0  0  0  0  0  0  0  0  0  0  0  0
    0.8712   -0.6003    0.3108 C   0  0  0  0  0  0  0  0  0  0  0  0
    1.3956   -1.3595    1.5364 C   0  0  0  0  0  0  0  0  0  0  0  0
    2.6976   -0.7809    2.0227 C   0  0  0  0  0  0  0  0  0  0  0  0
    3.9164   -1.1394    1.5596 C   0  0  0  0  0  0  0  0  0  0  0  0
    4.0947   -2.1837    0.4841 C   0  0  0  0  0  0  0  0  0  0  0  0
    5.1450   -0.4805    2.1530 C   0  0  0  0  0  0  0  0  0  0  0  0
    5.4719    0.8460    1.4615 C   0  0  0  0  0  0  0  0  0  0  0  0
    6.1342    0.6029    0.1270 C   0  0  0  0  0  0  0  0  0  0  0  0
    5.5822    0.8830   -1.0775 C   0  0  0  0  0  0  0  0  0  0  0  0
    4.2151    1.5087   -1.2079 C   0  0  0  0  0  0  0  0  0  0  0  0
    6.3719    0.5620   -2.3190 C   0  0  0  0  0  0  0  0  0  0  0  0
  1  2  1  0
  2  3  4  0
  3  4  4  0
  4  5  2  0
  4  6  4  0
  6  7  4  0
  7  8  4  0
  8  9  4  0
  9 10  4  0
 10 11  4  0
 11 12  4  0
  3 13  1  0
 13 14  1  0
 14 15  2  0
 15 16  1  0
 15 17  1  0
 17 18  1  0
 18 19  1  0
 19 20  2  0
 20 21  1  0
 20 22  1  0
 22 23  1  0
 23 24  1  0
 24 25  2  3
 25 26  1  0
 25 27  1  0
 12  2  4  0
 11  6  4  0
M  END
>  <SMILES>  (6) 
CC1=C(C(=O)C2=CC=CC=C2N1)C/C=C(\C)/CC/C=C(\C)/CCC=C(C)C

>  <NumConformers>  (6) 
11

>  <EnergyUnits>  (6) 
RDKit_forcefield

>  <Processing_Time>  (6) 
143.5s

>  <Original_Conformers>  (6) 
150

>  <Total_Conformers>  (6) 
11

>  <Energy>  (6) 
50.913226860021446

>  <Energy_Unit>  (6) 
RDKit_forcefield

>  <Rank>  (6) 
6

>  <Conformer_Index>  (6) 
5

$$$$
Aurachin D
     RDKit          3D

 27 28  0  0  0  0  0  0  0  0999 V2000
   -3.2774   -2.1334   -0.1581 C   0  0  0  0  0  0  0  0  0  0  0  0
   -4.1174   -0.8838   -0.0552 C   0  0  0  0  0  0  0  0  0  0  0  0
   -3.8109    0.2727   -0.8162 C   0  0  0  0  0  0  0  0  0  0  0  0
   -4.6054    1.4265   -0.6428 C   0  0  0  0  0  0  0  0  0  0  0  0
   -4.3215    2.4861   -1.2668 O   0  0  0  0  0  0  0  0  0  0  0  0
   -5.7147    1.3974    0.2217 C   0  0  0  0  0  0  0  0  0  0  0  0
   -6.5433    2.5234    0.4031 C   0  0  0  0  0  0  0  0  0  0  0  0
   -7.6498    2.4557    1.2548 C   0  0  0  0  0  0  0  0  0  0  0  0
   -7.9357    1.2770    1.9436 C   0  0  0  0  0  0  0  0  0  0  0  0
   -7.1180    0.1568    1.7804 C   0  0  0  0  0  0  0  0  0  0  0  0
   -6.0057    0.2060    0.9208 C   0  0  0  0  0  0  0  0  0  0  0  0
   -5.2053   -0.8863    0.7709 N   0  0  0  0  0  0  0  0  0  0  0  0
   -2.6213    0.2975   -1.7589 C   0  0  0  0  0  0  0  0  0  0  0  0
   -1.3393    0.5123   -0.9872 C   0  0  0  0  0  0  0  0  0  0  0  0
   -0.1251    0.0910   -1.4159 C   0  0  0  0  0  0  0  0  0  0  0  0
    0.0400   -0.5867   -2.7549 C   0  0  0  0  0  0  0  0  0  0  0  0
    1.0970    0.3402   -0.5526 C   0  0  0  0  0  0  0  0  0  0  0  0
    1.0113   -0.4475    0.7628 C   0  0  0  0  0  0  0  0  0  0  0  0
    2.2608   -0.2307    1.5799 C   0  0  0  0  0  0  0  0  0  0  0  0
    3.2813   -1.1131    1.6726 C   0  0  0  0  0  0  0  0  0  0  0  0
    3.2332   -2.4578    0.9877 C   0  0  0  0  0  0  0  0  0  0  0  0
    4.5384   -0.7212    2.4252 C   0  0  0  0  0  0  0  0  0  0  0  0
    5.6927   -0.4092    1.4633 C   0  0  0  0  0  0  0  0  0  0  0  0
    5.3466    0.7296    0.5269 C   0  0  0  0  0  0  0  0  0  0  0  0
    5.6965    0.7791   -0.7772 C   0  0  0  0  0  0  0  0  0  0  0  0
    5.3067    1.9968   -1.5804 C   0  0  0  0  0  0  0  0  0  0  0  0
    6.4397   -0.3482   -1.4461 C   0  0  0  0  0  0  0  0  0  0  0  0
  1  2  1  0
  2  3  4  0
  3  4  4  0
  4  5  2  0
  4  6  4  0
  6  7  4  0
  7  8  4  0
  8  9  4  0
  9 10  4  0
 10 11  4  0
 11 12  4  0
  3 13  1  0
 13 14  1  0
 14 15  2  0
 15 16  1  0
 15 17  1  0
 17 18  1  0
 18 19  1  0
 19 20  2  0
 20 21  1  0
 20 22  1  0
 22 23  1  0
 23 24  1  0
 24 25  2  3
 25 26  1  0
 25 27  1  0
 12  2  4  0
 11  6  4  0
M  END
>  <SMILES>  (7) 
CC1=C(C(=O)C2=CC=CC=C2N1)C/C=C(\C)/CC/C=C(\C)/CCC=C(C)C

>  <NumConformers>  (7) 
11

>  <EnergyUnits>  (7) 
RDKit_forcefield

>  <Processing_Time>  (7) 
143.5s

>  <Original_Conformers>  (7) 
150

>  <Total_Conformers>  (7) 
11

>  <Energy>  (7) 
51.125775597929284

>  <Energy_Unit>  (7) 
RDKit_forcefield

>  <Rank>  (7) 
7

>  <Conformer_Index>  (7) 
6

$$$$
Aurachin D
     RDKit          3D

 27 28  0  0  0  0  0  0  0  0999 V2000
   -3.5689   -2.1744   -0.0596 C   0  0  0  0  0  0  0  0  0  0  0  0
   -4.4773   -0.9738    0.0836 C   0  0  0  0  0  0  0  0  0  0  0  0
   -4.3151    0.1722   -0.7324 C   0  0  0  0  0  0  0  0  0  0  0  0
   -5.1567    1.2876   -0.5148 C   0  0  0  0  0  0  0  0  0  0  0  0
   -4.9926    2.3425   -1.1909 O   0  0  0  0  0  0  0  0  0  0  0  0
   -6.1821    1.2218    0.4486 C   0  0  0  0  0  0  0  0  0  0  0  0
   -7.0622    2.2990    0.6749 C   0  0  0  0  0  0  0  0  0  0  0  0
   -8.0894    2.1811    1.6151 C   0  0  0  0  0  0  0  0  0  0  0  0
   -8.2474    1.0026    2.3461 C   0  0  0  0  0  0  0  0  0  0  0  0
   -7.3757   -0.0664    2.1405 C   0  0  0  0  0  0  0  0  0  0  0  0
   -6.3399    0.0331    1.1947 C   0  0  0  0  0  0  0  0  0  0  0  0
   -5.4905   -1.0155    0.9977 N   0  0  0  0  0  0  0  0  0  0  0  0
   -3.2356    0.2259   -1.7958 C   0  0  0  0  0  0  0  0  0  0  0  0
   -1.9023    0.5857   -1.1911 C   0  0  0  0  0  0  0  0  0  0  0  0
   -0.7145    0.2561   -1.7466 C   0  0  0  0  0  0  0  0  0  0  0  0
   -0.6348   -0.4895   -3.0596 C   0  0  0  0  0  0  0  0  0  0  0  0
    0.5629    0.6828   -1.0541 C   0  0  0  0  0  0  0  0  0  0  0  0
    0.7524   -0.0598    0.2738 C   0  0  0  0  0  0  0  0  0  0  0  0
    2.0291    0.3875    0.9389 C   0  0  0  0  0  0  0  0  0  0  0  0
    3.1782   -0.3270    0.9678 C   0  0  0  0  0  0  0  0  0  0  0  0
    3.2758   -1.7051    0.3652 C   0  0  0  0  0  0  0  0  0  0  0  0
    4.4079    0.2855    1.6055 C   0  0  0  0  0  0  0  0  0  0  0  0
    5.1828    1.1577    0.6072 C   0  0  0  0  0  0  0  0  0  0  0  0
    5.9314    0.3082   -0.3965 C   0  0  0  0  0  0  0  0  0  0  0  0
    7.1750   -0.1905   -0.1891 C   0  0  0  0  0  0  0  0  0  0  0  0
    7.8071   -1.0245   -1.2734 C   0  0  0  0  0  0  0  0  0  0  0  0
    7.9509    0.0753    1.0819 C   0  0  0  0  0  0  0  0  0  0  0  0
  1  2  1  0
  2  3  4  0
  3  4  4  0
  4  5  2  0
  4  6  4  0
  6  7  4  0
  7  8  4  0
  8  9  4  0
  9 10  4  0
 10 11  4  0
 11 12  4  0
  3 13  1  0
 13 14  1  0
 14 15  2  0
 15 16  1  0
 15 17  1  0
 17 18  1  0
 18 19  1  0
 19 20  2  0
 20 21  1  0
 20 22  1  0
 22 23  1  0
 23 24  1  0
 24 25  2  3
 25 26  1  0
 25 27  1  0
 12  2  4  0
 11  6  4  0
M  END
>  <SMILES>  (8) 
CC1=C(C(=O)C2=CC=CC=C2N1)C/C=C(\C)/CC/C=C(\C)/CCC=C(C)C

>  <NumConformers>  (8) 
11

>  <EnergyUnits>  (8) 
RDKit_forcefield

>  <Processing_Time>  (8) 
143.5s

>  <Original_Conformers>  (8) 
150

>  <Total_Conformers>  (8) 
11

>  <Energy>  (8) 
51.167498583018897

>  <Energy_Unit>  (8) 
RDKit_forcefield

>  <Rank>  (8) 
8

>  <Conformer_Index>  (8) 
7

$$$$
Aurachin D
     RDKit          3D

 27 28  0  0  0  0  0  0  0  0999 V2000
   -4.3094   -2.3003   -0.2336 C   0  0  0  0  0  0  0  0  0  0  0  0
   -5.0742   -1.0263    0.0264 C   0  0  0  0  0  0  0  0  0  0  0  0
   -4.6782    0.2033   -0.5589 C   0  0  0  0  0  0  0  0  0  0  0  0
   -5.4096    1.3690   -0.2494 C   0  0  0  0  0  0  0  0  0  0  0  0
   -5.0541    2.4824   -0.7275 O   0  0  0  0  0  0  0  0  0  0  0  0
   -6.5371    1.2926    0.5863 C   0  0  0  0  0  0  0  0  0  0  0  0
   -7.3041    2.4322    0.8994 C   0  0  0  0  0  0  0  0  0  0  0  0
   -8.4269    2.3211    1.7240 C   0  0  0  0  0  0  0  0  0  0  0  0
   -8.7928    1.0812    2.2495 C   0  0  0  0  0  0  0  0  0  0  0  0
   -8.0378   -0.0549    1.9526 C   0  0  0  0  0  0  0  0  0  0  0  0
   -6.9086    0.0397    1.1215 C   0  0  0  0  0  0  0  0  0  0  0  0
   -6.1724   -1.0704    0.8363 N   0  0  0  0  0  0  0  0  0  0  0  0
   -3.4752    0.2819   -1.4804 C   0  0  0  0  0  0  0  0  0  0  0  0
   -2.1994    0.3482   -0.6753 C   0  0  0  0  0  0  0  0  0  0  0  0
   -1.0716   -0.3325   -0.9798 C   0  0  0  0  0  0  0  0  0  0  0  0
   -0.9863   -1.2376   -2.1849 C   0  0  0  0  0  0  0  0  0  0  0  0
    0.1613   -0.1653   -0.1206 C   0  0  0  0  0  0  0  0  0  0  0  0
    1.1777    0.7587   -0.8026 C   0  0  0  0  0  0  0  0  0  0  0  0
    2.4846    0.7753   -0.0510 C   0  0  0  0  0  0  0  0  0  0  0  0
    3.4633   -0.1468   -0.2018 C   0  0  0  0  0  0  0  0  0  0  0  0
    3.3633   -1.2631   -1.2148 C   0  0  0  0  0  0  0  0  0  0  0  0
    4.7222   -0.0269    0.6274 C   0  0  0  0  0  0  0  0  0  0  0  0
    5.7372    0.8874   -0.0639 C   0  0  0  0  0  0  0  0  0  0  0  0
    7.0062    0.9811    0.7441 C   0  0  0  0  0  0  0  0  0  0  0  0
    8.0409    0.1175    0.6439 C   0  0  0  0  0  0  0  0  0  0  0  0
    8.0457   -1.0173   -0.3544 C   0  0  0  0  0  0  0  0  0  0  0  0
    9.2277    0.3139    1.5497 C   0  0  0  0  0  0  0  0  0  0  0  0
  1  2  1  0
  2  3  4  0
  3  4  4  0
  4  5  2  0
  4  6  4  0
  6  7  4  0
  7  8  4  0
  8  9  4  0
  9 10  4  0
 10 11  4  0
 11 12  4  0
  3 13  1  0
 13 14  1  0
 14 15  2  0
 15 16  1  0
 15 17  1  0
 17 18  1  0
 18 19  1  0
 19 20  2  0
 20 21  1  0
 20 22  1  0
 22 23  1  0
 23 24  1  0
 24 25  2  3
 25 26  1  0
 25 27  1  0
 12  2  4  0
 11  6  4  0
M  END
>  <SMILES>  (9) 
CC1=C(C(=O)C2=CC=CC=C2N1)C/C=C(\C)/CC/C=C(\C)/CCC=C(C)C

>  <NumConformers>  (9) 
11

>  <EnergyUnits>  (9) 
RDKit_forcefield

>  <Processing_Time>  (9) 
143.5s

>  <Original_Conformers>  (9) 
150

>  <Total_Conformers>  (9) 
11

>  <Energy>  (9) 
51.223416652208222

>  <Energy_Unit>  (9) 
RDKit_forcefield

>  <Rank>  (9) 
9

>  <Conformer_Index>  (9) 
8

$$$$
Aurachin D
     RDKit          3D

 27 28  0  0  0  0  0  0  0  0999 V2000
   -2.6623   -1.4963    1.5866 C   0  0  0  0  0  0  0  0  0  0  0  0
   -3.7101   -0.4847    1.1951 C   0  0  0  0  0  0  0  0  0  0  0  0
   -3.3936    0.8911    1.0697 C   0  0  0  0  0  0  0  0  0  0  0  0
   -4.4078    1.7877    0.6717 C   0  0  0  0  0  0  0  0  0  0  0  0
   -4.1426    3.0130    0.5173 O   0  0  0  0  0  0  0  0  0  0  0  0
   -5.7125    1.3181    0.4406 C   0  0  0  0  0  0  0  0  0  0  0  0
   -6.7518    2.1849    0.0518 C   0  0  0  0  0  0  0  0  0  0  0  0
   -8.0390    1.6870   -0.1707 C   0  0  0  0  0  0  0  0  0  0  0  0
   -8.3037    0.3258   -0.0066 C   0  0  0  0  0  0  0  0  0  0  0  0
   -7.2826   -0.5452    0.3779 C   0  0  0  0  0  0  0  0  0  0  0  0
   -5.9831   -0.0595    0.6018 C   0  0  0  0  0  0  0  0  0  0  0  0
   -4.9875   -0.9117    0.9733 N   0  0  0  0  0  0  0  0  0  0  0  0
   -1.9772    1.3889    1.2803 C   0  0  0  0  0  0  0  0  0  0  0  0
   -1.1574    1.1702    0.0324 C   0  0  0  0  0  0  0  0  0  0  0  0
    0.1841    1.0186    0.0298 C   0  0  0  0  0  0  0  0  0  0  0  0
    0.9828    1.0143    1.3094 C   0  0  0  0  0  0  0  0  0  0  0  0
    0.8985    0.8244   -1.2898 C   0  0  0  0  0  0  0  0  0  0  0  0
    0.8081   -0.6283   -1.7685 C   0  0  0  0  0  0  0  0  0  0  0  0
    1.7174   -1.5162   -0.9528 C   0  0  0  0  0  0  0  0  0  0  0  0
    2.9373   -1.9412   -1.3577 C   0  0  0  0  0  0  0  0  0  0  0  0
    3.4627   -1.6360   -2.7398 C   0  0  0  0  0  0  0  0  0  0  0  0
    3.8083   -2.7305   -0.3987 C   0  0  0  0  0  0  0  0  0  0  0  0
    5.0975   -1.9859   -0.0203 C   0  0  0  0  0  0  0  0  0  0  0  0
    4.8104   -0.6453    0.6213 C   0  0  0  0  0  0  0  0  0  0  0  0
    5.3979    0.5180    0.2600 C   0  0  0  0  0  0  0  0  0  0  0  0
    6.3786    0.5999   -0.8853 C   0  0  0  0  0  0  0  0  0  0  0  0
    5.0844    1.7658    1.0465 C   0  0  0  0  0  0  0  0  0  0  0  0
  1  2  1  0
  2  3  4  0
  3  4  4  0
  4  5  2  0
  4  6  4  0
  6  7  4  0
  7  8  4  0
  8  9  4  0
  9 10  4  0
 10 11  4  0
 11 12  4  0
  3 13  1  0
 13 14  1  0
 14 15  2  0
 15 16  1  0
 15 17  1  0
 17 18  1  0
 18 19  1  0
 19 20  2  0
 20 21  1  0
 20 22  1  0
 22 23  1  0
 23 24  1  0
 24 25  2  3
 25 26  1  0
 25 27  1  0
 12  2  4  0
 11  6  4  0
M  END
>  <SMILES>  (10) 
CC1=C(C(=O)C2=CC=CC=C2N1)C/C=C(\C)/CC/C=C(\C)/CCC=C(C)C

>  <NumConformers>  (10) 
11

>  <EnergyUnits>  (10) 
RDKit_forcefield

>  <Processing_Time>  (10) 
143.5s

>  <Original_Conformers>  (10) 
150

>  <Total_Conformers>  (10) 
11

>  <Energy>  (10) 
51.263825658661482

>  <Energy_Unit>  (10) 
RDKit_forcefield

>  <Rank>  (10) 
10

>  <Conformer_Index>  (10) 
9

$$$$
Aurachin D
     RDKit          3D

 27 28  0  0  0  0  0  0  0  0999 V2000
   -4.1018   -1.4033    2.3167 C   0  0  0  0  0  0  0  0  0  0  0  0
   -4.9502   -0.4996    1.4558 C   0  0  0  0  0  0  0  0  0  0  0  0
   -4.5221    0.8099    1.1170 C   0  0  0  0  0  0  0  0  0  0  0  0
   -5.3411    1.5959    0.2808 C   0  0  0  0  0  0  0  0  0  0  0  0
   -4.9642    2.7493   -0.0675 O   0  0  0  0  0  0  0  0  0  0  0  0
   -6.5766    1.0966   -0.1660 C   0  0  0  0  0  0  0  0  0  0  0  0
   -7.4313    1.8616   -0.9843 C   0  0  0  0  0  0  0  0  0  0  0  0
   -8.6567    1.3391   -1.4071 C   0  0  0  0  0  0  0  0  0  0  0  0
   -9.0445    0.0550   -1.0209 C   0  0  0  0  0  0  0  0  0  0  0  0
   -8.2068   -0.7128   -0.2095 C   0  0  0  0  0  0  0  0  0  0  0  0
   -6.9720   -0.2025    0.2235 C   0  0  0  0  0  0  0  0  0  0  0  0
   -6.1573   -0.9567    1.0130 N   0  0  0  0  0  0  0  0  0  0  0  0
   -3.1902    1.3513    1.6053 C   0  0  0  0  0  0  0  0  0  0  0  0
   -2.0633    0.8329    0.7424 C   0  0  0  0  0  0  0  0  0  0  0  0
   -0.8731    0.3981    1.2194 C   0  0  0  0  0  0  0  0  0  0  0  0
   -0.5532    0.4094    2.6941 C   0  0  0  0  0  0  0  0  0  0  0  0
    0.1935   -0.0729    0.2568 C   0  0  0  0  0  0  0  0  0  0  0  0
    1.2698    1.0025    0.0638 C   0  0  0  0  0  0  0  0  0  0  0  0
    2.4116    0.4822   -0.7735 C   0  0  0  0  0  0  0  0  0  0  0  0
    3.4419   -0.2524   -0.2904 C   0  0  0  0  0  0  0  0  0  0  0  0
    3.5804   -0.5749    1.1803 C   0  0  0  0  0  0  0  0  0  0  0  0
    4.5311   -0.7002   -1.2367 C   0  0  0  0  0  0  0  0  0  0  0  0
    5.6070    0.3811   -1.3767 C   0  0  0  0  0  0  0  0  0  0  0  0
    6.6830   -0.0594   -2.3378 C   0  0  0  0  0  0  0  0  0  0  0  0
    7.7784   -0.7693   -1.9889 C   0  0  0  0  0  0  0  0  0  0  0  0
    8.7357   -1.1879   -3.0751 C   0  0  0  0  0  0  0  0  0  0  0  0
    8.0703   -1.1365   -0.5531 C   0  0  0  0  0  0  0  0  0  0  0  0
  1  2  1  0
  2  3  4  0
  3  4  4  0
  4  5  2  0
  4  6  4  0
  6  7  4  0
  7  8  4  0
  8  9  4  0
  9 10  4  0
 10 11  4  0
 11 12  4  0
  3 13  1  0
 13 14  1  0
 14 15  2  0
 15 16  1  0
 15 17  1  0
 17 18  1  0
 18 19  1  0
 19 20  2  0
 20 21  1  0
 20 22  1  0
 22 23  1  0
 23 24  1  0
 24 25  2  3
 25 26  1  0
 25 27  1  0
 12  2  4  0
 11  6  4  0
M  END
>  <SMILES>  (11) 
CC1=C(C(=O)C2=CC=CC=C2N1)C/C=C(\C)/CC/C=C(\C)/CCC=C(C)C

>  <NumConformers>  (11) 
11

>  <EnergyUnits>  (11) 
RDKit_forcefield

>  <Processing_Time>  (11) 
143.5s

>  <Original_Conformers>  (11) 
150

>  <Total_Conformers>  (11) 
11

>  <Energy>  (11) 
51.26706820556511

>  <Energy_Unit>  (11) 
RDKit_forcefield

>  <Rank>  (11) 
11

>  <Conformer_Index>  (11) 
10

$$$$
