CK-2-88
     RDKit          3D

 25 28  0  0  0  0  0  0  0  0999 V2000
   -1.0221   -2.5427    0.2371 C   0  0  0  0  0  0  0  0  0  0  0  0
   -2.1337   -1.5180    0.1962 C   0  0  0  0  0  0  0  0  0  0  0  0
   -1.8654   -0.1477   -0.0453 C   0  0  0  0  0  0  0  0  0  0  0  0
   -0.4933    0.3421   -0.3120 C   0  0  0  0  0  0  0  0  0  0  0  0
    0.2328   -0.1297   -1.4169 C   0  0  0  0  0  0  0  0  0  0  0  0
    1.5220    0.3472   -1.6690 C   0  0  0  0  0  0  0  0  0  0  0  0
    2.0952    1.3168   -0.8312 C   0  0  0  0  0  0  0  0  0  0  0  0
    3.4993    1.7979   -1.0771 C   0  0  0  0  0  0  0  0  0  0  0  0
    4.4826    0.9220   -0.3494 C   0  0  0  0  0  0  0  0  0  0  0  0
    4.9996   -0.2291   -0.9676 C   0  0  0  0  0  0  0  0  0  0  0  0
    5.8845   -1.0624   -0.2763 C   0  0  0  0  0  0  0  0  0  0  0  0
    6.2520   -0.7581    1.0373 C   0  0  0  0  0  0  0  0  0  0  0  0
    5.7324    0.3784    1.6632 C   0  0  0  0  0  0  0  0  0  0  0  0
    4.8472    1.2144    0.9757 C   0  0  0  0  0  0  0  0  0  0  0  0
    1.3664    1.7920    0.2704 C   0  0  0  0  0  0  0  0  0  0  0  0
    0.0770    1.3148    0.5222 C   0  0  0  0  0  0  0  0  0  0  0  0
   -2.8863    0.7577   -0.0287 N   0  0  0  0  0  0  0  0  0  0  0  0
   -4.1815    0.3868    0.1732 C   0  0  0  0  0  0  0  0  0  0  0  0
   -5.2023    1.3520    0.1716 C   0  0  0  0  0  0  0  0  0  0  0  0
   -6.5319    0.9721    0.3673 C   0  0  0  0  0  0  0  0  0  0  0  0
   -6.8551   -0.3713    0.5647 C   0  0  0  0  0  0  0  0  0  0  0  0
   -5.8505   -1.3424    0.5689 C   0  0  0  0  0  0  0  0  0  0  0  0
   -4.5046   -0.9738    0.3745 C   0  0  0  0  0  0  0  0  0  0  0  0
   -3.4702   -1.9258    0.3789 C   0  0  0  0  0  0  0  0  0  0  0  0
   -3.7385   -3.1480    0.5493 O   0  0  0  0  0  0  0  0  0  0  0  0
  1  2  1  0
  2  3  4  0
  3  4  1  0
  4  5  4  0
  5  6  4  0
  6  7  4  0
  7  8  1  0
  8  9  1  0
  9 10  4  0
 10 11  4  0
 11 12  4  0
 12 13  4  0
 13 14  4  0
  7 15  4  0
 15 16  4  0
  3 17  4  0
 17 18  4  0
 18 19  4  0
 19 20  4  0
 20 21  4  0
 21 22  4  0
 22 23  4  0
 23 24  4  0
 24 25  2  0
 14  9  4  0
 16  4  4  0
 23 18  4  0
 24  2  4  0
M  END
>  <SMILES>  (1) 
Cc4c(c2ccc(Cc1ccccc1)cc2)[nH]c3ccccc3c4=O

>  <NumConformers>  (1) 
4

>  <EnergyUnits>  (1) 
RDKit_forcefield

>  <Processing_Time>  (1) 
23.8s

>  <Original_Conformers>  (1) 
500

>  <Total_Conformers>  (1) 
4

>  <Energy>  (1) 
60.304400112367482

>  <Energy_Unit>  (1) 
RDKit_forcefield

>  <Rank>  (1) 
1

>  <Conformer_Index>  (1) 
0

$$$$
CK-2-88
     RDKit          3D

 25 28  0  0  0  0  0  0  0  0999 V2000
   -1.0295   -1.8578    1.7726 C   0  0  0  0  0  0  0  0  0  0  0  0
   -2.1377   -1.1467    1.0285 C   0  0  0  0  0  0  0  0  0  0  0  0
   -1.8665   -0.0506    0.1725 C   0  0  0  0  0  0  0  0  0  0  0  0
   -0.4948    0.4800   -0.0028 C   0  0  0  0  0  0  0  0  0  0  0  0
    0.2208    0.9894    1.0922 C   0  0  0  0  0  0  0  0  0  0  0  0
    1.5096    1.5003    0.9161 C   0  0  0  0  0  0  0  0  0  0  0  0
    2.0930    1.5268   -0.3604 C   0  0  0  0  0  0  0  0  0  0  0  0
    3.4967    2.0362   -0.5428 C   0  0  0  0  0  0  0  0  0  0  0  0
    4.4827    0.9131   -0.3695 C   0  0  0  0  0  0  0  0  0  0  0  0
    4.9906    0.6058    0.9041 C   0  0  0  0  0  0  0  0  0  0  0  0
    5.8780   -0.4621    1.0694 C   0  0  0  0  0  0  0  0  0  0  0  0
    6.2571   -1.2349   -0.0317 C   0  0  0  0  0  0  0  0  0  0  0  0
    5.7466   -0.9432   -1.2996 C   0  0  0  0  0  0  0  0  0  0  0  0
    4.8589    0.1238   -1.4694 C   0  0  0  0  0  0  0  0  0  0  0  0
    1.3747    1.0220   -1.4558 C   0  0  0  0  0  0  0  0  0  0  0  0
    0.0857    0.5113   -1.2793 C   0  0  0  0  0  0  0  0  0  0  0  0
   -2.8840    0.5384   -0.5204 N   0  0  0  0  0  0  0  0  0  0  0  0
   -4.1788    0.1357   -0.3897 C   0  0  0  0  0  0  0  0  0  0  0  0
   -5.1961    0.7781   -1.1149 C   0  0  0  0  0  0  0  0  0  0  0  0
   -6.5255    0.3740   -0.9737 C   0  0  0  0  0  0  0  0  0  0  0  0
   -6.8519   -0.6716   -0.1086 C   0  0  0  0  0  0  0  0  0  0  0  0
   -5.8508   -1.3200    0.6192 C   0  0  0  0  0  0  0  0  0  0  0  0
   -4.5051   -0.9242    0.4855 C   0  0  0  0  0  0  0  0  0  0  0  0
   -3.4741   -1.5600    1.1992 C   0  0  0  0  0  0  0  0  0  0  0  0
   -3.7454   -2.5043    1.9926 O   0  0  0  0  0  0  0  0  0  0  0  0
  1  2  1  0
  2  3  4  0
  3  4  1  0
  4  5  4  0
  5  6  4  0
  6  7  4  0
  7  8  1  0
  8  9  1  0
  9 10  4  0
 10 11  4  0
 11 12  4  0
 12 13  4  0
 13 14  4  0
  7 15  4  0
 15 16  4  0
  3 17  4  0
 17 18  4  0
 18 19  4  0
 19 20  4  0
 20 21  4  0
 21 22  4  0
 22 23  4  0
 23 24  4  0
 24 25  2  0
 14  9  4  0
 16  4  4  0
 23 18  4  0
 24  2  4  0
M  END
>  <SMILES>  (2) 
Cc4c(c2ccc(Cc1ccccc1)cc2)[nH]c3ccccc3c4=O

>  <NumConformers>  (2) 
4

>  <EnergyUnits>  (2) 
RDKit_forcefield

>  <Processing_Time>  (2) 
23.8s

>  <Original_Conformers>  (2) 
500

>  <Total_Conformers>  (2) 
4

>  <Energy>  (2) 
60.304400112750301

>  <Energy_Unit>  (2) 
RDKit_forcefield

>  <Rank>  (2) 
2

>  <Conformer_Index>  (2) 
1

$$$$
CK-2-88
     RDKit          3D

 25 28  0  0  0  0  0  0  0  0999 V2000
   -2.1993    1.1018    2.9211 C   0  0  0  0  0  0  0  0  0  0  0  0
   -2.7110    0.4299    1.6666 C   0  0  0  0  0  0  0  0  0  0  0  0
   -1.8627    0.1979    0.5555 C   0  0  0  0  0  0  0  0  0  0  0  0
   -0.4267    0.5603    0.5824 C   0  0  0  0  0  0  0  0  0  0  0  0
    0.4379   -0.0117    1.5290 C   0  0  0  0  0  0  0  0  0  0  0  0
    1.7957    0.3190    1.5344 C   0  0  0  0  0  0  0  0  0  0  0  0
    2.3082    1.2247    0.5923 C   0  0  0  0  0  0  0  0  0  0  0  0
    3.7771    1.5491    0.5724 C   0  0  0  0  0  0  0  0  0  0  0  0
    4.5127    0.5745   -0.3066 C   0  0  0  0  0  0  0  0  0  0  0  0
    4.6598    0.8300   -1.6804 C   0  0  0  0  0  0  0  0  0  0  0  0
    5.3120   -0.0941   -2.5027 C   0  0  0  0  0  0  0  0  0  0  0  0
    5.8131   -1.2815   -1.9621 C   0  0  0  0  0  0  0  0  0  0  0  0
    5.6600   -1.5485   -0.5988 C   0  0  0  0  0  0  0  0  0  0  0  0
    5.0085   -0.6271    0.2271 C   0  0  0  0  0  0  0  0  0  0  0  0
    1.4483    1.7750   -0.3712 C   0  0  0  0  0  0  0  0  0  0  0  0
    0.0904    1.4441   -0.3763 C   0  0  0  0  0  0  0  0  0  0  0  0
   -2.3682   -0.3690   -0.5784 N   0  0  0  0  0  0  0  0  0  0  0  0
   -3.6681   -0.7652   -0.6738 C   0  0  0  0  0  0  0  0  0  0  0  0
   -4.1430   -1.3543   -1.8575 C   0  0  0  0  0  0  0  0  0  0  0  0
   -5.4724   -1.7713   -1.9532 C   0  0  0  0  0  0  0  0  0  0  0  0
   -6.3383   -1.6062   -0.8710 C   0  0  0  0  0  0  0  0  0  0  0  0
   -5.8801   -1.0220    0.3127 C   0  0  0  0  0  0  0  0  0  0  0  0
   -4.5420   -0.5949    0.4231 C   0  0  0  0  0  0  0  0  0  0  0  0
   -4.0517    0.0013    1.5981 C   0  0  0  0  0  0  0  0  0  0  0  0
   -4.8143    0.1554    2.5928 O   0  0  0  0  0  0  0  0  0  0  0  0
  1  2  1  0
  2  3  4  0
  3  4  1  0
  4  5  4  0
  5  6  4  0
  6  7  4  0
  7  8  1  0
  8  9  1  0
  9 10  4  0
 10 11  4  0
 11 12  4  0
 12 13  4  0
 13 14  4  0
  7 15  4  0
 15 16  4  0
  3 17  4  0
 17 18  4  0
 18 19  4  0
 19 20  4  0
 20 21  4  0
 21 22  4  0
 22 23  4  0
 23 24  4  0
 24 25  2  0
 14  9  4  0
 16  4  4  0
 23 18  4  0
 24  2  4  0
M  END
>  <SMILES>  (3) 
Cc4c(c2ccc(Cc1ccccc1)cc2)[nH]c3ccccc3c4=O

>  <NumConformers>  (3) 
4

>  <EnergyUnits>  (3) 
RDKit_forcefield

>  <Processing_Time>  (3) 
23.8s

>  <Original_Conformers>  (3) 
500

>  <Total_Conformers>  (3) 
4

>  <Energy>  (3) 
60.331335655607262

>  <Energy_Unit>  (3) 
RDKit_forcefield

>  <Rank>  (3) 
3

>  <Conformer_Index>  (3) 
2

$$$$
CK-2-88
     RDKit          3D

 25 28  0  0  0  0  0  0  0  0999 V2000
   -2.3617    2.1605    2.0713 C   0  0  0  0  0  0  0  0  0  0  0  0
   -2.7973    0.9926    1.2149 C   0  0  0  0  0  0  0  0  0  0  0  0
   -1.8516    0.1253    0.6137 C   0  0  0  0  0  0  0  0  0  0  0  0
   -0.3934    0.3433    0.7567 C   0  0  0  0  0  0  0  0  0  0  0  0
    0.2018    1.5273    0.2936 C   0  0  0  0  0  0  0  0  0  0  0  0
    1.5813    1.7165    0.4126 C   0  0  0  0  0  0  0  0  0  0  0  0
    2.3851    0.7236    0.9945 C   0  0  0  0  0  0  0  0  0  0  0  0
    3.8752    0.9101    1.0854 C   0  0  0  0  0  0  0  0  0  0  0  0
    4.5405    0.3934   -0.1612 C   0  0  0  0  0  0  0  0  0  0  0  0
    4.7224    1.2375   -1.2697 C   0  0  0  0  0  0  0  0  0  0  0  0
    5.3080    0.7459   -2.4406 C   0  0  0  0  0  0  0  0  0  0  0  0
    5.7072   -0.5913   -2.5161 C   0  0  0  0  0  0  0  0  0  0  0  0
    5.5185   -1.4403   -1.4221 C   0  0  0  0  0  0  0  0  0  0  0  0
    4.9334   -0.9528   -0.2493 C   0  0  0  0  0  0  0  0  0  0  0  0
    1.7930   -0.4716    1.4322 C   0  0  0  0  0  0  0  0  0  0  0  0
    0.4133   -0.6604    1.3130 C   0  0  0  0  0  0  0  0  0  0  0  0
   -2.2796   -0.9462   -0.1151 N   0  0  0  0  0  0  0  0  0  0  0  0
   -3.6016   -1.1983   -0.3262 C   0  0  0  0  0  0  0  0  0  0  0  0
   -3.9967   -2.3077   -1.0922 C   0  0  0  0  0  0  0  0  0  0  0  0
   -5.3512   -2.5614   -1.3190 C   0  0  0  0  0  0  0  0  0  0  0  0
   -6.3221   -1.7118   -0.7862 C   0  0  0  0  0  0  0  0  0  0  0  0
   -5.9441   -0.6045   -0.0224 C   0  0  0  0  0  0  0  0  0  0  0  0
   -4.5815   -0.3372    0.2162 C   0  0  0  0  0  0  0  0  0  0  0  0
   -4.1689    0.7653    0.9848 C   0  0  0  0  0  0  0  0  0  0  0  0
   -5.0285    1.5518    1.4719 O   0  0  0  0  0  0  0  0  0  0  0  0
  1  2  1  0
  2  3  4  0
  3  4  1  0
  4  5  4  0
  5  6  4  0
  6  7  4  0
  7  8  1  0
  8  9  1  0
  9 10  4  0
 10 11  4  0
 11 12  4  0
 12 13  4  0
 13 14  4  0
  7 15  4  0
 15 16  4  0
  3 17  4  0
 17 18  4  0
 18 19  4  0
 19 20  4  0
 20 21  4  0
 21 22  4  0
 22 23  4  0
 23 24  4  0
 24 25  2  0
 14  9  4  0
 16  4  4  0
 23 18  4  0
 24  2  4  0
M  END
>  <SMILES>  (4) 
Cc4c(c2ccc(Cc1ccccc1)cc2)[nH]c3ccccc3c4=O

>  <NumConformers>  (4) 
4

>  <EnergyUnits>  (4) 
RDKit_forcefield

>  <Processing_Time>  (4) 
23.8s

>  <Original_Conformers>  (4) 
500

>  <Total_Conformers>  (4) 
4

>  <Energy>  (4) 
60.331335656617583

>  <Energy_Unit>  (4) 
RDKit_forcefield

>  <Rank>  (4) 
4

>  <Conformer_Index>  (4) 
3

$$$$
