CK-2-63
     RDKit          3D

 30 33  0  0  0  0  0  0  0  0999 V2000
    1.7865   -2.3720   -0.2212 C   0  0  0  0  0  0  0  0  0  0  0  0
    2.8759   -1.3443   -0.0105 C   0  0  0  0  0  0  0  0  0  0  0  0
    2.6004    0.0446   -0.0654 C   0  0  0  0  0  0  0  0  0  0  0  0
    1.2289    0.5585   -0.2874 C   0  0  0  0  0  0  0  0  0  0  0  0
    0.1962    0.2537    0.6132 C   0  0  0  0  0  0  0  0  0  0  0  0
   -1.0914    0.7557    0.4054 C   0  0  0  0  0  0  0  0  0  0  0  0
   -1.3638    1.5697   -0.7086 C   0  0  0  0  0  0  0  0  0  0  0  0
   -2.6399    2.1024   -0.9439 O   0  0  0  0  0  0  0  0  0  0  0  0
   -3.8532    1.4876   -0.6011 C   0  0  0  0  0  0  0  0  0  0  0  0
   -4.9563    2.2951   -0.3064 C   0  0  0  0  0  0  0  0  0  0  0  0
   -6.1862    1.7200    0.0259 C   0  0  0  0  0  0  0  0  0  0  0  0
   -6.3373    0.3286    0.0557 C   0  0  0  0  0  0  0  0  0  0  0  0
   -7.5946   -0.1946    0.3983 O   0  0  0  0  0  0  0  0  0  0  0  0
   -7.9166   -1.5816    0.4751 C   0  0  0  0  0  0  0  0  0  0  0  0
   -7.7355   -2.1821   -0.7580 F   0  0  0  0  0  0  0  0  0  0  0  0
   -7.1244   -2.2033    1.4236 F   0  0  0  0  0  0  0  0  0  0  0  0
   -9.2410   -1.7145    0.8447 F   0  0  0  0  0  0  0  0  0  0  0  0
   -5.2330   -0.4866   -0.2604 C   0  0  0  0  0  0  0  0  0  0  0  0
   -4.0031    0.0898   -0.5922 C   0  0  0  0  0  0  0  0  0  0  0  0
   -0.3242    1.9024   -1.5841 C   0  0  0  0  0  0  0  0  0  0  0  0
    0.9640    1.4005   -1.3776 C   0  0  0  0  0  0  0  0  0  0  0  0
    3.6154    0.9448    0.0831 N   0  0  0  0  0  0  0  0  0  0  0  0
    4.8986    0.5575    0.3266 C   0  0  0  0  0  0  0  0  0  0  0  0
    5.9103    1.5196    0.4832 C   0  0  0  0  0  0  0  0  0  0  0  0
    7.2242    1.1247    0.7440 C   0  0  0  0  0  0  0  0  0  0  0  0
    7.5403   -0.2305    0.8521 C   0  0  0  0  0  0  0  0  0  0  0  0
    6.5446   -1.1987    0.6988 C   0  0  0  0  0  0  0  0  0  0  0  0
    5.2150   -0.8152    0.4336 C   0  0  0  0  0  0  0  0  0  0  0  0
    4.1916   -1.7648    0.2687 C   0  0  0  0  0  0  0  0  0  0  0  0
    4.4519   -2.9965    0.3685 O   0  0  0  0  0  0  0  0  0  0  0  0
  1  2  1  0
  2  3  4  0
  3  4  1  0
  4  5  4  0
  5  6  4  0
  6  7  4  0
  7  8  1  0
  8  9  1  0
  9 10  4  0
 10 11  4  0
 11 12  4  0
 12 13  1  0
 13 14  1  0
 14 15  1  0
 14 16  1  0
 14 17  1  0
 12 18  4  0
 18 19  4  0
  7 20  4  0
 20 21  4  0
  3 22  4  0
 22 23  4  0
 23 24  4  0
 24 25  4  0
 25 26  4  0
 26 27  4  0
 27 28  4  0
 28 29  4  0
 29 30  2  0
 19  9  4  0
 21  4  4  0
 28 23  4  0
 29  2  4  0
M  END
>  <SMILES>  (1) 
Cc4c(c2ccc(Oc1ccc(OC(F)(F)F)cc1)cc2)[nH]c3ccccc3c4=O

>  <NumConformers>  (1) 
16

>  <EnergyUnits>  (1) 
RDKit_forcefield

>  <Processing_Time>  (1) 
33.9s

>  <Original_Conformers>  (1) 
500

>  <Total_Conformers>  (1) 
16

>  <Energy>  (1) 
70.597168813382694

>  <Energy_Unit>  (1) 
RDKit_forcefield

>  <Rank>  (1) 
1

>  <Conformer_Index>  (1) 
0

$$$$
CK-2-63
     RDKit          3D

 30 33  0  0  0  0  0  0  0  0999 V2000
    1.7620   -2.3739    0.3561 C   0  0  0  0  0  0  0  0  0  0  0  0
    2.8650   -1.3451    0.2448 C   0  0  0  0  0  0  0  0  0  0  0  0
    2.5856    0.0435    0.2851 C   0  0  0  0  0  0  0  0  0  0  0  0
    1.2001    0.5563    0.3935 C   0  0  0  0  0  0  0  0  0  0  0  0
    0.8436    1.3915    1.4626 C   0  0  0  0  0  0  0  0  0  0  0  0
   -0.4576    1.8924    1.5625 C   0  0  0  0  0  0  0  0  0  0  0  0
   -1.4193    1.5655    0.6001 C   0  0  0  0  0  0  0  0  0  0  0  0
   -2.7108    2.0971    0.7299 O   0  0  0  0  0  0  0  0  0  0  0  0
   -3.8906    1.4848    0.2818 C   0  0  0  0  0  0  0  0  0  0  0  0
   -4.0389    0.0871    0.2515 C   0  0  0  0  0  0  0  0  0  0  0  0
   -5.2361   -0.4868   -0.1868 C   0  0  0  0  0  0  0  0  0  0  0  0
   -6.3099    0.3307   -0.5901 C   0  0  0  0  0  0  0  0  0  0  0  0
   -7.5336   -0.1900   -1.0412 O   0  0  0  0  0  0  0  0  0  0  0  0
   -7.8476   -1.5765   -1.1536 C   0  0  0  0  0  0  0  0  0  0  0  0
   -6.9778   -2.1924   -2.0357 F   0  0  0  0  0  0  0  0  0  0  0  0
   -7.7713   -2.1847    0.0865 F   0  0  0  0  0  0  0  0  0  0  0  0
   -9.1359   -1.7066   -1.6348 F   0  0  0  0  0  0  0  0  0  0  0  0
   -6.1622    1.7218   -0.5388 C   0  0  0  0  0  0  0  0  0  0  0  0
   -4.9650    2.2944   -0.1001 C   0  0  0  0  0  0  0  0  0  0  0  0
   -1.0534    0.7586   -0.4919 C   0  0  0  0  0  0  0  0  0  0  0  0
    0.2474    0.2576   -0.5933 C   0  0  0  0  0  0  0  0  0  0  0  0
    3.6092    0.9443    0.2287 N   0  0  0  0  0  0  0  0  0  0  0  0
    4.9085    0.5583    0.0922 C   0  0  0  0  0  0  0  0  0  0  0  0
    5.9296    1.5210    0.0278 C   0  0  0  0  0  0  0  0  0  0  0  0
    7.2610    1.1275   -0.1233 C   0  0  0  0  0  0  0  0  0  0  0  0
    7.5855   -0.2271   -0.2129 C   0  0  0  0  0  0  0  0  0  0  0  0
    6.5806   -1.1960   -0.1505 C   0  0  0  0  0  0  0  0  0  0  0  0
    5.2333   -0.8138    0.0036 C   0  0  0  0  0  0  0  0  0  0  0  0
    4.1998   -1.7642    0.0753 C   0  0  0  0  0  0  0  0  0  0  0  0
    4.4679   -2.9953   -0.0099 O   0  0  0  0  0  0  0  0  0  0  0  0
  1  2  1  0
  2  3  4  0
  3  4  1  0
  4  5  4  0
  5  6  4  0
  6  7  4  0
  7  8  1  0
  8  9  1  0
  9 10  4  0
 10 11  4  0
 11 12  4  0
 12 13  1  0
 13 14  1  0
 14 15  1  0
 14 16  1  0
 14 17  1  0
 12 18  4  0
 18 19  4  0
  7 20  4  0
 20 21  4  0
  3 22  4  0
 22 23  4  0
 23 24  4  0
 24 25  4  0
 25 26  4  0
 26 27  4  0
 27 28  4  0
 28 29  4  0
 29 30  2  0
 19  9  4  0
 21  4  4  0
 28 23  4  0
 29  2  4  0
M  END
>  <SMILES>  (2) 
Cc4c(c2ccc(Oc1ccc(OC(F)(F)F)cc1)cc2)[nH]c3ccccc3c4=O

>  <NumConformers>  (2) 
16

>  <EnergyUnits>  (2) 
RDKit_forcefield

>  <Processing_Time>  (2) 
33.9s

>  <Original_Conformers>  (2) 
500

>  <Total_Conformers>  (2) 
16

>  <Energy>  (2) 
70.597168817025477

>  <Energy_Unit>  (2) 
RDKit_forcefield

>  <Rank>  (2) 
2

>  <Conformer_Index>  (2) 
1

$$$$
CK-2-63
     RDKit          3D

 30 33  0  0  0  0  0  0  0  0999 V2000
    2.0113   -2.4360    0.5441 C   0  0  0  0  0  0  0  0  0  0  0  0
    3.0488   -1.3525    0.3523 C   0  0  0  0  0  0  0  0  0  0  0  0
    2.6857    0.0164    0.3033 C   0  0  0  0  0  0  0  0  0  0  0  0
    1.2723    0.4509    0.3930 C   0  0  0  0  0  0  0  0  0  0  0  0
    0.3325    0.0299   -0.5609 C   0  0  0  0  0  0  0  0  0  0  0  0
   -0.9956    0.4573   -0.4785 C   0  0  0  0  0  0  0  0  0  0  0  0
   -1.4020    1.3122    0.5615 C   0  0  0  0  0  0  0  0  0  0  0  0
   -2.7224    1.7728    0.6702 O   0  0  0  0  0  0  0  0  0  0  0  0
   -3.8661    1.0622    0.2770 C   0  0  0  0  0  0  0  0  0  0  0  0
   -4.9906    1.7787   -0.1455 C   0  0  0  0  0  0  0  0  0  0  0  0
   -6.1557    1.1090   -0.5320 C   0  0  0  0  0  0  0  0  0  0  0  0
   -6.2141   -0.2976   -0.4867 C   0  0  0  0  0  0  0  0  0  0  0  0
   -7.3557   -1.0232   -0.8638 O   0  0  0  0  0  0  0  0  0  0  0  0
   -8.5757   -0.4539   -1.3338 C   0  0  0  0  0  0  0  0  0  0  0  0
   -9.1225    0.3686   -0.3651 F   0  0  0  0  0  0  0  0  0  0  0  0
   -8.3502    0.2673   -2.4927 F   0  0  0  0  0  0  0  0  0  0  0  0
   -9.4683   -1.4715   -1.6093 F   0  0  0  0  0  0  0  0  0  0  0  0
   -5.0938   -1.0110   -0.0447 C   0  0  0  0  0  0  0  0  0  0  0  0
   -3.9296   -0.3406    0.3411 C   0  0  0  0  0  0  0  0  0  0  0  0
   -0.4550    1.7601    1.4892 C   0  0  0  0  0  0  0  0  0  0  0  0
    0.8735    1.3328    1.4083 C   0  0  0  0  0  0  0  0  0  0  0  0
    3.6521    0.9714    0.1756 N   0  0  0  0  0  0  0  0  0  0  0  0
    4.9715    0.6561    0.0504 C   0  0  0  0  0  0  0  0  0  0  0  0
    5.9316    1.6721   -0.0893 C   0  0  0  0  0  0  0  0  0  0  0  0
    7.2833    1.3503   -0.2290 C   0  0  0  0  0  0  0  0  0  0  0  0
    7.6890    0.0147   -0.2320 C   0  0  0  0  0  0  0  0  0  0  0  0
    6.7455   -1.0065   -0.0941 C   0  0  0  0  0  0  0  0  0  0  0  0
    5.3785   -0.6968    0.0495 C   0  0  0  0  0  0  0  0  0  0  0  0
    4.4053   -1.7008    0.1959 C   0  0  0  0  0  0  0  0  0  0  0  0
    4.7473   -2.9164    0.1897 O   0  0  0  0  0  0  0  0  0  0  0  0
  1  2  1  0
  2  3  4  0
  3  4  1  0
  4  5  4  0
  5  6  4  0
  6  7  4  0
  7  8  1  0
  8  9  1  0
  9 10  4  0
 10 11  4  0
 11 12  4  0
 12 13  1  0
 13 14  1  0
 14 15  1  0
 14 16  1  0
 14 17  1  0
 12 18  4  0
 18 19  4  0
  7 20  4  0
 20 21  4  0
  3 22  4  0
 22 23  4  0
 23 24  4  0
 24 25  4  0
 25 26  4  0
 26 27  4  0
 27 28  4  0
 28 29  4  0
 29 30  2  0
 19  9  4  0
 21  4  4  0
 28 23  4  0
 29  2  4  0
M  END
>  <SMILES>  (3) 
Cc4c(c2ccc(Oc1ccc(OC(F)(F)F)cc1)cc2)[nH]c3ccccc3c4=O

>  <NumConformers>  (3) 
16

>  <EnergyUnits>  (3) 
RDKit_forcefield

>  <Processing_Time>  (3) 
33.9s

>  <Original_Conformers>  (3) 
500

>  <Total_Conformers>  (3) 
16

>  <Energy>  (3) 
70.612877811358416

>  <Energy_Unit>  (3) 
RDKit_forcefield

>  <Rank>  (3) 
3

>  <Conformer_Index>  (3) 
2

$$$$
CK-2-63
     RDKit          3D

 30 33  0  0  0  0  0  0  0  0999 V2000
    2.0243   -2.4703    0.2652 C   0  0  0  0  0  0  0  0  0  0  0  0
    3.0520   -1.3609    0.2837 C   0  0  0  0  0  0  0  0  0  0  0  0
    2.7014   -0.0250   -0.0332 C   0  0  0  0  0  0  0  0  0  0  0  0
    1.3072    0.3589   -0.3547 C   0  0  0  0  0  0  0  0  0  0  0  0
    1.0132    0.9647   -1.5852 C   0  0  0  0  0  0  0  0  0  0  0  0
   -0.2974    1.3447   -1.8887 C   0  0  0  0  0  0  0  0  0  0  0  0
   -1.3305    1.1237   -0.9711 C   0  0  0  0  0  0  0  0  0  0  0  0
   -2.6300    1.5295   -1.3086 O   0  0  0  0  0  0  0  0  0  0  0  0
   -3.8130    0.9221   -0.8620 C   0  0  0  0  0  0  0  0  0  0  0  0
   -4.9633    1.7067   -0.7303 C   0  0  0  0  0  0  0  0  0  0  0  0
   -6.1664    1.1373   -0.3019 C   0  0  0  0  0  0  0  0  0  0  0  0
   -6.2363   -0.2391   -0.0109 C   0  0  0  0  0  0  0  0  0  0  0  0
   -7.4159   -0.8648    0.4241 O   0  0  0  0  0  0  0  0  0  0  0  0
   -8.6673   -0.2125    0.6284 C   0  0  0  0  0  0  0  0  0  0  0  0
   -8.5409    0.7699    1.5942 F   0  0  0  0  0  0  0  0  0  0  0  0
   -9.1135    0.3450   -0.5564 F   0  0  0  0  0  0  0  0  0  0  0  0
   -9.5928   -1.1434    1.0587 F   0  0  0  0  0  0  0  0  0  0  0  0
   -5.0883   -1.0255   -0.1626 C   0  0  0  0  0  0  0  0  0  0  0  0
   -3.8862   -0.4551   -0.5905 C   0  0  0  0  0  0  0  0  0  0  0  0
   -1.0309    0.5503    0.2775 C   0  0  0  0  0  0  0  0  0  0  0  0
    0.2791    0.1704    0.5823 C   0  0  0  0  0  0  0  0  0  0  0  0
    3.6627    0.9434   -0.0521 N   0  0  0  0  0  0  0  0  0  0  0  0
    4.9614    0.6826    0.2661 C   0  0  0  0  0  0  0  0  0  0  0  0
    5.9160    1.7130    0.2435 C   0  0  0  0  0  0  0  0  0  0  0  0
    7.2456    1.4498    0.5803 C   0  0  0  0  0  0  0  0  0  0  0  0
    7.6342    0.1593    0.9434 C   0  0  0  0  0  0  0  0  0  0  0  0
    6.6958   -0.8756    0.9705 C   0  0  0  0  0  0  0  0  0  0  0  0
    5.3514   -0.6252    0.6314 C   0  0  0  0  0  0  0  0  0  0  0  0
    4.3844   -1.6457    0.6435 C   0  0  0  0  0  0  0  0  0  0  0  0
    4.7106   -2.8198    0.9748 O   0  0  0  0  0  0  0  0  0  0  0  0
  1  2  1  0
  2  3  4  0
  3  4  1  0
  4  5  4  0
  5  6  4  0
  6  7  4  0
  7  8  1  0
  8  9  1  0
  9 10  4  0
 10 11  4  0
 11 12  4  0
 12 13  1  0
 13 14  1  0
 14 15  1  0
 14 16  1  0
 14 17  1  0
 12 18  4  0
 18 19  4  0
  7 20  4  0
 20 21  4  0
  3 22  4  0
 22 23  4  0
 23 24  4  0
 24 25  4  0
 25 26  4  0
 26 27  4  0
 27 28  4  0
 28 29  4  0
 29 30  2  0
 19  9  4  0
 21  4  4  0
 28 23  4  0
 29  2  4  0
M  END
>  <SMILES>  (4) 
Cc4c(c2ccc(Oc1ccc(OC(F)(F)F)cc1)cc2)[nH]c3ccccc3c4=O

>  <NumConformers>  (4) 
16

>  <EnergyUnits>  (4) 
RDKit_forcefield

>  <Processing_Time>  (4) 
33.9s

>  <Original_Conformers>  (4) 
500

>  <Total_Conformers>  (4) 
16

>  <Energy>  (4) 
70.612877817905812

>  <Energy_Unit>  (4) 
RDKit_forcefield

>  <Rank>  (4) 
4

>  <Conformer_Index>  (4) 
3

$$$$
CK-2-63
     RDKit          3D

 30 33  0  0  0  0  0  0  0  0999 V2000
    2.4110   -2.6156   -0.9094 C   0  0  0  0  0  0  0  0  0  0  0  0
    3.1837   -1.4569   -0.3197 C   0  0  0  0  0  0  0  0  0  0  0  0
    2.6022   -0.1711   -0.1923 C   0  0  0  0  0  0  0  0  0  0  0  0
    1.2285    0.1131   -0.6682 C   0  0  0  0  0  0  0  0  0  0  0  0
    0.2633    0.5977    0.2269 C   0  0  0  0  0  0  0  0  0  0  0  0
   -1.0303    0.8847   -0.2180 C   0  0  0  0  0  0  0  0  0  0  0  0
   -1.3759    0.6891   -1.5671 C   0  0  0  0  0  0  0  0  0  0  0  0
   -2.6590    0.9789   -2.0541 O   0  0  0  0  0  0  0  0  0  0  0  0
   -3.8509    0.8641   -1.3234 C   0  0  0  0  0  0  0  0  0  0  0  0
   -4.9172    1.7120   -1.6392 C   0  0  0  0  0  0  0  0  0  0  0  0
   -6.1259    1.6188   -0.9435 C   0  0  0  0  0  0  0  0  0  0  0  0
   -6.2933    0.6676    0.0698 C   0  0  0  0  0  0  0  0  0  0  0  0
   -7.5279    0.6200    0.7372 O   0  0  0  0  0  0  0  0  0  0  0  0
   -7.8621   -0.2842    1.7880 C   0  0  0  0  0  0  0  0  0  0  0  0
   -9.1561   -0.0330    2.2008 F   0  0  0  0  0  0  0  0  0  0  0  0
   -7.7836   -1.5895    1.3367 F   0  0  0  0  0  0  0  0  0  0  0  0
   -7.0086   -0.1039    2.8617 F   0  0  0  0  0  0  0  0  0  0  0  0
   -5.2275   -0.2009    0.3759 C   0  0  0  0  0  0  0  0  0  0  0  0
   -4.0187   -0.1064   -0.3204 C   0  0  0  0  0  0  0  0  0  0  0  0
   -0.4014    0.2402   -2.4654 C   0  0  0  0  0  0  0  0  0  0  0  0
    0.8924   -0.0476   -2.0216 C   0  0  0  0  0  0  0  0  0  0  0  0
    3.3114    0.8409    0.3867 N   0  0  0  0  0  0  0  0  0  0  0  0
    4.5927    0.6741    0.8184 C   0  0  0  0  0  0  0  0  0  0  0  0
    5.2889    1.7471    1.3994 C   0  0  0  0  0  0  0  0  0  0  0  0
    6.6062    1.5810    1.8324 C   0  0  0  0  0  0  0  0  0  0  0  0
    7.2404    0.3459    1.6889 C   0  0  0  0  0  0  0  0  0  0  0  0
    6.5607   -0.7304    1.1129 C   0  0  0  0  0  0  0  0  0  0  0  0
    5.2308   -0.5780    0.6732 C   0  0  0  0  0  0  0  0  0  0  0  0
    4.5177   -1.6426    0.0947 C   0  0  0  0  0  0  0  0  0  0  0  0
    5.0725   -2.7676   -0.0516 O   0  0  0  0  0  0  0  0  0  0  0  0
  1  2  1  0
  2  3  4  0
  3  4  1  0
  4  5  4  0
  5  6  4  0
  6  7  4  0
  7  8  1  0
  8  9  1  0
  9 10  4  0
 10 11  4  0
 11 12  4  0
 12 13  1  0
 13 14  1  0
 14 15  1  0
 14 16  1  0
 14 17  1  0
 12 18  4  0
 18 19  4  0
  7 20  4  0
 20 21  4  0
  3 22  4  0
 22 23  4  0
 23 24  4  0
 24 25  4  0
 25 26  4  0
 26 27  4  0
 27 28  4  0
 28 29  4  0
 29 30  2  0
 19  9  4  0
 21  4  4  0
 28 23  4  0
 29  2  4  0
M  END
>  <SMILES>  (5) 
Cc4c(c2ccc(Oc1ccc(OC(F)(F)F)cc1)cc2)[nH]c3ccccc3c4=O

>  <NumConformers>  (5) 
16

>  <EnergyUnits>  (5) 
RDKit_forcefield

>  <Processing_Time>  (5) 
33.9s

>  <Original_Conformers>  (5) 
500

>  <Total_Conformers>  (5) 
16

>  <Energy>  (5) 
70.636368194685048

>  <Energy_Unit>  (5) 
RDKit_forcefield

>  <Rank>  (5) 
5

>  <Conformer_Index>  (5) 
4

$$$$
CK-2-63
     RDKit          3D

 30 33  0  0  0  0  0  0  0  0999 V2000
    2.5474   -0.4515   -2.6639 C   0  0  0  0  0  0  0  0  0  0  0  0
    3.2648   -0.1709   -1.3624 C   0  0  0  0  0  0  0  0  0  0  0  0
    2.5963   -0.2646   -0.1165 C   0  0  0  0  0  0  0  0  0  0  0  0
    1.1783   -0.6827   -0.0230 C   0  0  0  0  0  0  0  0  0  0  0  0
    0.2361    0.1654    0.5774 C   0  0  0  0  0  0  0  0  0  0  0  0
   -1.1005   -0.2292    0.6851 C   0  0  0  0  0  0  0  0  0  0  0  0
   -1.5126   -1.4799    0.1913 C   0  0  0  0  0  0  0  0  0  0  0  0
   -2.8415   -1.9169    0.2936 O   0  0  0  0  0  0  0  0  0  0  0  0
   -3.9740   -1.0899    0.2608 C   0  0  0  0  0  0  0  0  0  0  0  0
   -4.0057    0.0998   -0.4876 C   0  0  0  0  0  0  0  0  0  0  0  0
   -5.1587    0.8904   -0.5088 C   0  0  0  0  0  0  0  0  0  0  0  0
   -6.3042    0.4954    0.2094 C   0  0  0  0  0  0  0  0  0  0  0  0
   -7.4882    1.2502    0.2263 O   0  0  0  0  0  0  0  0  0  0  0  0
   -7.6875    2.4856   -0.4575 C   0  0  0  0  0  0  0  0  0  0  0  0
   -8.9690    2.9355   -0.2058 F   0  0  0  0  0  0  0  0  0  0  0  0
   -7.5381    2.3053   -1.8210 F   0  0  0  0  0  0  0  0  0  0  0  0
   -6.7857    3.4320   -0.0050 F   0  0  0  0  0  0  0  0  0  0  0  0
   -6.2721   -0.7003    0.9367 C   0  0  0  0  0  0  0  0  0  0  0  0
   -5.1191   -1.4900    0.9569 C   0  0  0  0  0  0  0  0  0  0  0  0
   -0.5640   -2.3391   -0.3742 C   0  0  0  0  0  0  0  0  0  0  0  0
    0.7728   -1.9455   -0.4830 C   0  0  0  0  0  0  0  0  0  0  0  0
    3.2610    0.0404    1.0357 N   0  0  0  0  0  0  0  0  0  0  0  0
    4.5753    0.3986    1.0418 C   0  0  0  0  0  0  0  0  0  0  0  0
    5.2225    0.6941    2.2532 C   0  0  0  0  0  0  0  0  0  0  0  0
    6.5727    1.0506    2.2624 C   0  0  0  0  0  0  0  0  0  0  0  0
    7.2889    1.1142    1.0661 C   0  0  0  0  0  0  0  0  0  0  0  0
    6.6586    0.8230   -0.1465 C   0  0  0  0  0  0  0  0  0  0  0  0
    5.2965    0.4637   -0.1713 C   0  0  0  0  0  0  0  0  0  0  0  0
    4.6320    0.1702   -1.3750 C   0  0  0  0  0  0  0  0  0  0  0  0
    5.2605    0.2147   -2.4695 O   0  0  0  0  0  0  0  0  0  0  0  0
  1  2  1  0
  2  3  4  0
  3  4  1  0
  4  5  4  0
  5  6  4  0
  6  7  4  0
  7  8  1  0
  8  9  1  0
  9 10  4  0
 10 11  4  0
 11 12  4  0
 12 13  1  0
 13 14  1  0
 14 15  1  0
 14 16  1  0
 14 17  1  0
 12 18  4  0
 18 19  4  0
  7 20  4  0
 20 21  4  0
  3 22  4  0
 22 23  4  0
 23 24  4  0
 24 25  4  0
 25 26  4  0
 26 27  4  0
 27 28  4  0
 28 29  4  0
 29 30  2  0
 19  9  4  0
 21  4  4  0
 28 23  4  0
 29  2  4  0
M  END
>  <SMILES>  (6) 
Cc4c(c2ccc(Oc1ccc(OC(F)(F)F)cc1)cc2)[nH]c3ccccc3c4=O

>  <NumConformers>  (6) 
16

>  <EnergyUnits>  (6) 
RDKit_forcefield

>  <Processing_Time>  (6) 
33.9s

>  <Original_Conformers>  (6) 
500

>  <Total_Conformers>  (6) 
16

>  <Energy>  (6) 
70.636368198413948

>  <Energy_Unit>  (6) 
RDKit_forcefield

>  <Rank>  (6) 
6

>  <Conformer_Index>  (6) 
5

$$$$
CK-2-63
     RDKit          3D

 30 33  0  0  0  0  0  0  0  0999 V2000
    2.6047   -2.5407   -1.1916 C   0  0  0  0  0  0  0  0  0  0  0  0
    3.3394   -1.4234   -0.4851 C   0  0  0  0  0  0  0  0  0  0  0  0
    2.7012   -0.1940   -0.1865 C   0  0  0  0  0  0  0  0  0  0  0  0
    1.3008    0.0743   -0.5882 C   0  0  0  0  0  0  0  0  0  0  0  0
    0.9297    0.0610   -1.9420 C   0  0  0  0  0  0  0  0  0  0  0  0
   -0.3900    0.3333   -2.3135 C   0  0  0  0  0  0  0  0  0  0  0  0
   -1.3556    0.6197   -1.3422 C   0  0  0  0  0  0  0  0  0  0  0  0
   -2.6660    0.8998   -1.7566 O   0  0  0  0  0  0  0  0  0  0  0  0
   -3.8271    0.6366   -1.0148 C   0  0  0  0  0  0  0  0  0  0  0  0
   -4.9426    1.4604   -1.1972 C   0  0  0  0  0  0  0  0  0  0  0  0
   -6.1243    1.2235   -0.4881 C   0  0  0  0  0  0  0  0  0  0  0  0
   -6.2085    0.1414    0.4096 C   0  0  0  0  0  0  0  0  0  0  0  0
   -7.3677   -0.1437    1.1493 O   0  0  0  0  0  0  0  0  0  0  0  0
   -8.5820    0.6021    1.0980 C   0  0  0  0  0  0  0  0  0  0  0  0
   -9.4964    0.0294    1.9604 F   0  0  0  0  0  0  0  0  0  0  0  0
   -9.1023    0.5784   -0.1836 F   0  0  0  0  0  0  0  0  0  0  0  0
   -8.3559    1.9090    1.4914 F   0  0  0  0  0  0  0  0  0  0  0  0
   -5.0969   -0.6930    0.5753 C   0  0  0  0  0  0  0  0  0  0  0  0
   -3.9162   -0.4550   -0.1337 C   0  0  0  0  0  0  0  0  0  0  0  0
   -0.9767    0.6686    0.0113 C   0  0  0  0  0  0  0  0  0  0  0  0
    0.3428    0.3970    0.3841 C   0  0  0  0  0  0  0  0  0  0  0  0
    3.3792    0.7759    0.4932 N   0  0  0  0  0  0  0  0  0  0  0  0
    4.6802    0.6245    0.8678 C   0  0  0  0  0  0  0  0  0  0  0  0
    5.3423    1.6540    1.5572 C   0  0  0  0  0  0  0  0  0  0  0  0
    6.6793    1.5050    1.9323 C   0  0  0  0  0  0  0  0  0  0  0  0
    7.3672    0.3306    1.6226 C   0  0  0  0  0  0  0  0  0  0  0  0
    6.7218   -0.7019    0.9373 C   0  0  0  0  0  0  0  0  0  0  0  0
    5.3727   -0.5663    0.5542 C   0  0  0  0  0  0  0  0  0  0  0  0
    4.6934   -1.5887   -0.1313 C   0  0  0  0  0  0  0  0  0  0  0  0
    5.2965   -2.6577   -0.4282 O   0  0  0  0  0  0  0  0  0  0  0  0
  1  2  1  0
  2  3  4  0
  3  4  1  0
  4  5  4  0
  5  6  4  0
  6  7  4  0
  7  8  1  0
  8  9  1  0
  9 10  4  0
 10 11  4  0
 11 12  4  0
 12 13  1  0
 13 14  1  0
 14 15  1  0
 14 16  1  0
 14 17  1  0
 12 18  4  0
 18 19  4  0
  7 20  4  0
 20 21  4  0
  3 22  4  0
 22 23  4  0
 23 24  4  0
 24 25  4  0
 25 26  4  0
 26 27  4  0
 27 28  4  0
 28 29  4  0
 29 30  2  0
 19  9  4  0
 21  4  4  0
 28 23  4  0
 29  2  4  0
M  END
>  <SMILES>  (7) 
Cc4c(c2ccc(Oc1ccc(OC(F)(F)F)cc1)cc2)[nH]c3ccccc3c4=O

>  <NumConformers>  (7) 
16

>  <EnergyUnits>  (7) 
RDKit_forcefield

>  <Processing_Time>  (7) 
33.9s

>  <Original_Conformers>  (7) 
500

>  <Total_Conformers>  (7) 
16

>  <Energy>  (7) 
70.650679613621961

>  <Energy_Unit>  (7) 
RDKit_forcefield

>  <Rank>  (7) 
7

>  <Conformer_Index>  (7) 
6

$$$$
CK-2-63
     RDKit          3D

 30 33  0  0  0  0  0  0  0  0999 V2000
    2.7226   -0.9686   -2.5559 C   0  0  0  0  0  0  0  0  0  0  0  0
    3.4096   -0.4874   -1.2975 C   0  0  0  0  0  0  0  0  0  0  0  0
    2.6927   -0.3069   -0.0886 C   0  0  0  0  0  0  0  0  0  0  0  0
    1.2487   -0.6207    0.0149 C   0  0  0  0  0  0  0  0  0  0  0  0
    0.3412    0.3764    0.4020 C   0  0  0  0  0  0  0  0  0  0  0  0
   -1.0206    0.0838    0.5189 C   0  0  0  0  0  0  0  0  0  0  0  0
   -1.4931   -1.2129    0.2482 C   0  0  0  0  0  0  0  0  0  0  0  0
   -2.8497   -1.5485    0.3682 O   0  0  0  0  0  0  0  0  0  0  0  0
   -3.9260   -0.6813    0.1290 C   0  0  0  0  0  0  0  0  0  0  0  0
   -5.1181   -0.8792    0.8332 C   0  0  0  0  0  0  0  0  0  0  0  0
   -6.2195   -0.0461    0.6137 C   0  0  0  0  0  0  0  0  0  0  0  0
   -6.1445    0.9955   -0.3315 C   0  0  0  0  0  0  0  0  0  0  0  0
   -7.2171    1.8634   -0.5926 O   0  0  0  0  0  0  0  0  0  0  0  0
   -8.4910    1.8140    0.0462 C   0  0  0  0  0  0  0  0  0  0  0  0
   -9.1009    0.5969   -0.1997 F   0  0  0  0  0  0  0  0  0  0  0  0
   -9.2870    2.8217   -0.4629 F   0  0  0  0  0  0  0  0  0  0  0  0
   -8.3487    2.0038    1.4091 F   0  0  0  0  0  0  0  0  0  0  0  0
   -4.9565    1.1786   -1.0490 C   0  0  0  0  0  0  0  0  0  0  0  0
   -3.8561    0.3455   -0.8284 C   0  0  0  0  0  0  0  0  0  0  0  0
   -0.5811   -2.2145   -0.1024 C   0  0  0  0  0  0  0  0  0  0  0  0
    0.7808   -1.9232   -0.2201 C   0  0  0  0  0  0  0  0  0  0  0  0
    3.3340    0.1730    1.0164 N   0  0  0  0  0  0  0  0  0  0  0  0
    4.6673    0.4526    1.0170 C   0  0  0  0  0  0  0  0  0  0  0  0
    5.2884    0.9352    2.1810 C   0  0  0  0  0  0  0  0  0  0  0  0
    6.6573    1.2118    2.1867 C   0  0  0  0  0  0  0  0  0  0  0  0
    7.4180    1.0085    1.0343 C   0  0  0  0  0  0  0  0  0  0  0  0
    6.8141    0.5288   -0.1308 C   0  0  0  0  0  0  0  0  0  0  0  0
    5.4337    0.2473   -0.1519 C   0  0  0  0  0  0  0  0  0  0  0  0
    4.7952   -0.2310   -1.3095 C   0  0  0  0  0  0  0  0  0  0  0  0
    5.4637   -0.4289   -2.3625 O   0  0  0  0  0  0  0  0  0  0  0  0
  1  2  1  0
  2  3  4  0
  3  4  1  0
  4  5  4  0
  5  6  4  0
  6  7  4  0
  7  8  1  0
  8  9  1  0
  9 10  4  0
 10 11  4  0
 11 12  4  0
 12 13  1  0
 13 14  1  0
 14 15  1  0
 14 16  1  0
 14 17  1  0
 12 18  4  0
 18 19  4  0
  7 20  4  0
 20 21  4  0
  3 22  4  0
 22 23  4  0
 23 24  4  0
 24 25  4  0
 25 26  4  0
 26 27  4  0
 27 28  4  0
 28 29  4  0
 29 30  2  0
 19  9  4  0
 21  4  4  0
 28 23  4  0
 29  2  4  0
M  END
>  <SMILES>  (8) 
Cc4c(c2ccc(Oc1ccc(OC(F)(F)F)cc1)cc2)[nH]c3ccccc3c4=O

>  <NumConformers>  (8) 
16

>  <EnergyUnits>  (8) 
RDKit_forcefield

>  <Processing_Time>  (8) 
33.9s

>  <Original_Conformers>  (8) 
500

>  <Total_Conformers>  (8) 
16

>  <Energy>  (8) 
70.650679618956914

>  <Energy_Unit>  (8) 
RDKit_forcefield

>  <Rank>  (8) 
8

>  <Conformer_Index>  (8) 
7

$$$$
CK-2-63
     RDKit          3D

 30 33  0  0  0  0  0  0  0  0999 V2000
    3.3180   -1.3445   -2.5535 C   0  0  0  0  0  0  0  0  0  0  0  0
    3.6376   -0.6873   -1.2295 C   0  0  0  0  0  0  0  0  0  0  0  0
    2.6136   -0.3226   -0.3204 C   0  0  0  0  0  0  0  0  0  0  0  0
    1.1865   -0.6051   -0.5993 C   0  0  0  0  0  0  0  0  0  0  0  0
    0.7391   -1.9233   -0.7800 C   0  0  0  0  0  0  0  0  0  0  0  0
   -0.6128   -2.1814   -1.0238 C   0  0  0  0  0  0  0  0  0  0  0  0
   -1.5387   -1.1331   -1.0662 C   0  0  0  0  0  0  0  0  0  0  0  0
   -2.8837   -1.4324   -1.3285 O   0  0  0  0  0  0  0  0  0  0  0  0
   -3.9858   -0.7031   -0.8580 C   0  0  0  0  0  0  0  0  0  0  0  0
   -3.9647   -0.0384    0.3805 C   0  0  0  0  0  0  0  0  0  0  0  0
   -5.0886    0.6654    0.8237 C   0  0  0  0  0  0  0  0  0  0  0  0
   -6.2575    0.7041    0.0387 C   0  0  0  0  0  0  0  0  0  0  0  0
   -7.4142    1.3965    0.4320 O   0  0  0  0  0  0  0  0  0  0  0  0
   -7.5598    2.1368    1.6420 C   0  0  0  0  0  0  0  0  0  0  0  0
   -7.3974    1.3028    2.7337 F   0  0  0  0  0  0  0  0  0  0  0  0
   -8.8282    2.6825    1.6835 F   0  0  0  0  0  0  0  0  0  0  0  0
   -6.6317    3.1616    1.6887 F   0  0  0  0  0  0  0  0  0  0  0  0
   -6.2781    0.0237   -1.1845 C   0  0  0  0  0  0  0  0  0  0  0  0
   -5.1541   -0.6799   -1.6263 C   0  0  0  0  0  0  0  0  0  0  0  0
   -1.0908    0.1883   -0.8903 C   0  0  0  0  0  0  0  0  0  0  0  0
    0.2610    0.4478   -0.6469 C   0  0  0  0  0  0  0  0  0  0  0  0
    2.9338    0.3119    0.8447 N   0  0  0  0  0  0  0  0  0  0  0  0
    4.2231    0.5772    1.1955 C   0  0  0  0  0  0  0  0  0  0  0  0
    4.5072    1.2232    2.4102 C   0  0  0  0  0  0  0  0  0  0  0  0
    5.8289    1.4860    2.7767 C   0  0  0  0  0  0  0  0  0  0  0  0
    6.8775    1.1064    1.9372 C   0  0  0  0  0  0  0  0  0  0  0  0
    6.6103    0.4631    0.7260 C   0  0  0  0  0  0  0  0  0  0  0  0
    5.2817    0.1932    0.3424 C   0  0  0  0  0  0  0  0  0  0  0  0
    4.9794   -0.4472   -0.8721 C   0  0  0  0  0  0  0  0  0  0  0  0
    5.9114   -0.8056   -1.6452 O   0  0  0  0  0  0  0  0  0  0  0  0
  1  2  1  0
  2  3  4  0
  3  4  1  0
  4  5  4  0
  5  6  4  0
  6  7  4  0
  7  8  1  0
  8  9  1  0
  9 10  4  0
 10 11  4  0
 11 12  4  0
 12 13  1  0
 13 14  1  0
 14 15  1  0
 14 16  1  0
 14 17  1  0
 12 18  4  0
 18 19  4  0
  7 20  4  0
 20 21  4  0
  3 22  4  0
 22 23  4  0
 23 24  4  0
 24 25  4  0
 25 26  4  0
 26 27  4  0
 27 28  4  0
 28 29  4  0
 29 30  2  0
 19  9  4  0
 21  4  4  0
 28 23  4  0
 29  2  4  0
M  END
>  <SMILES>  (9) 
Cc4c(c2ccc(Oc1ccc(OC(F)(F)F)cc1)cc2)[nH]c3ccccc3c4=O

>  <NumConformers>  (9) 
16

>  <EnergyUnits>  (9) 
RDKit_forcefield

>  <Processing_Time>  (9) 
33.9s

>  <Original_Conformers>  (9) 
500

>  <Total_Conformers>  (9) 
16

>  <Energy>  (9) 
70.677377346906184

>  <Energy_Unit>  (9) 
RDKit_forcefield

>  <Rank>  (9) 
9

>  <Conformer_Index>  (9) 
8

$$$$
CK-2-63
     RDKit          3D

 30 33  0  0  0  0  0  0  0  0999 V2000
    3.2991   -1.6989   -2.3487 C   0  0  0  0  0  0  0  0  0  0  0  0
    3.6259   -0.9055   -1.1033 C   0  0  0  0  0  0  0  0  0  0  0  0
    2.6191   -0.2187   -0.3804 C   0  0  0  0  0  0  0  0  0  0  0  0
    1.2077   -0.2061   -0.8299 C   0  0  0  0  0  0  0  0  0  0  0  0
    0.8590    0.3272   -2.0808 C   0  0  0  0  0  0  0  0  0  0  0  0
   -0.4778    0.3521   -2.4881 C   0  0  0  0  0  0  0  0  0  0  0  0
   -1.4853   -0.1307   -1.6456 C   0  0  0  0  0  0  0  0  0  0  0  0
   -2.8129   -0.1019   -2.0975 O   0  0  0  0  0  0  0  0  0  0  0  0
   -3.9467    0.0310   -1.2823 C   0  0  0  0  0  0  0  0  0  0  0  0
   -5.1473   -0.5517   -1.7004 C   0  0  0  0  0  0  0  0  0  0  0  0
   -6.3023   -0.4291   -0.9228 C   0  0  0  0  0  0  0  0  0  0  0  0
   -6.2796    0.2895    0.2784 C   0  0  0  0  0  0  0  0  0  0  0  0
   -7.4685    0.3783    1.0204 O   0  0  0  0  0  0  0  0  0  0  0  0
   -7.6167    1.0690    2.2591 C   0  0  0  0  0  0  0  0  0  0  0  0
   -7.3382    2.4137    2.0916 F   0  0  0  0  0  0  0  0  0  0  0  0
   -8.9212    0.9354    2.6934 F   0  0  0  0  0  0  0  0  0  0  0  0
   -6.7721    0.5271    3.2114 F   0  0  0  0  0  0  0  0  0  0  0  0
   -5.0764    0.8943    0.6914 C   0  0  0  0  0  0  0  0  0  0  0  0
   -3.9216    0.7706   -0.0871 C   0  0  0  0  0  0  0  0  0  0  0  0
   -1.1365   -0.6697   -0.3943 C   0  0  0  0  0  0  0  0  0  0  0  0
    0.2001   -0.6957    0.0140 C   0  0  0  0  0  0  0  0  0  0  0  0
    2.9411    0.4484    0.7658 N   0  0  0  0  0  0  0  0  0  0  0  0
    4.2199    0.5174    1.2301 C   0  0  0  0  0  0  0  0  0  0  0  0
    4.5072    1.2247    2.4094 C   0  0  0  0  0  0  0  0  0  0  0  0
    5.8193    1.3059    2.8808 C   0  0  0  0  0  0  0  0  0  0  0  0
    6.8550    0.6848    2.1810 C   0  0  0  0  0  0  0  0  0  0  0  0
    6.5845   -0.0222    1.0065 C   0  0  0  0  0  0  0  0  0  0  0  0
    5.2654   -0.1141    0.5200 C   0  0  0  0  0  0  0  0  0  0  0  0
    4.9594   -0.8225   -0.6552 C   0  0  0  0  0  0  0  0  0  0  0  0
    5.8804   -1.3875   -1.3089 O   0  0  0  0  0  0  0  0  0  0  0  0
  1  2  1  0
  2  3  4  0
  3  4  1  0
  4  5  4  0
  5  6  4  0
  6  7  4  0
  7  8  1  0
  8  9  1  0
  9 10  4  0
 10 11  4  0
 11 12  4  0
 12 13  1  0
 13 14  1  0
 14 15  1  0
 14 16  1  0
 14 17  1  0
 12 18  4  0
 18 19  4  0
  7 20  4  0
 20 21  4  0
  3 22  4  0
 22 23  4  0
 23 24  4  0
 24 25  4  0
 25 26  4  0
 26 27  4  0
 27 28  4  0
 28 29  4  0
 29 30  2  0
 19  9  4  0
 21  4  4  0
 28 23  4  0
 29  2  4  0
M  END
>  <SMILES>  (10) 
Cc4c(c2ccc(Oc1ccc(OC(F)(F)F)cc1)cc2)[nH]c3ccccc3c4=O

>  <NumConformers>  (10) 
16

>  <EnergyUnits>  (10) 
RDKit_forcefield

>  <Processing_Time>  (10) 
33.9s

>  <Original_Conformers>  (10) 
500

>  <Total_Conformers>  (10) 
16

>  <Energy>  (10) 
70.677377363180355

>  <Energy_Unit>  (10) 
RDKit_forcefield

>  <Rank>  (10) 
10

>  <Conformer_Index>  (10) 
9

$$$$
CK-2-63
     RDKit          3D

 30 33  0  0  0  0  0  0  0  0999 V2000
    2.6427   -2.4736   -1.2154 C   0  0  0  0  0  0  0  0  0  0  0  0
    3.2982   -1.3176   -0.4933 C   0  0  0  0  0  0  0  0  0  0  0  0
    2.6219   -0.0869   -0.3038 C   0  0  0  0  0  0  0  0  0  0  0  0
    1.2280    0.1152   -0.7622 C   0  0  0  0  0  0  0  0  0  0  0  0
    0.1872   -0.6841   -0.2639 C   0  0  0  0  0  0  0  0  0  0  0  0
   -1.1279   -0.4740   -0.6879 C   0  0  0  0  0  0  0  0  0  0  0  0
   -1.4232    0.5556   -1.5993 C   0  0  0  0  0  0  0  0  0  0  0  0
   -2.7273    0.7869   -2.0611 O   0  0  0  0  0  0  0  0  0  0  0  0
   -3.9015    0.5632   -1.3270 C   0  0  0  0  0  0  0  0  0  0  0  0
   -5.0712    0.2267   -2.0159 C   0  0  0  0  0  0  0  0  0  0  0  0
   -6.2645    0.0100   -1.3212 C   0  0  0  0  0  0  0  0  0  0  0  0
   -6.3116    0.1396    0.0719 C   0  0  0  0  0  0  0  0  0  0  0  0
   -7.5366   -0.0919    0.7183 O   0  0  0  0  0  0  0  0  0  0  0  0
   -7.7559   -0.0025    2.1245 C   0  0  0  0  0  0  0  0  0  0  0  0
   -9.0778   -0.3011    2.3918 F   0  0  0  0  0  0  0  0  0  0  0  0
   -6.9506   -0.9084    2.7913 F   0  0  0  0  0  0  0  0  0  0  0  0
   -7.4902    1.2807    2.5678 F   0  0  0  0  0  0  0  0  0  0  0  0
   -5.1396    0.4982    0.7658 C   0  0  0  0  0  0  0  0  0  0  0  0
   -3.9463    0.7142    0.0699 C   0  0  0  0  0  0  0  0  0  0  0  0
   -0.3831    1.3475   -2.0984 C   0  0  0  0  0  0  0  0  0  0  0  0
    0.9326    1.1385   -1.6749 C   0  0  0  0  0  0  0  0  0  0  0  0
    3.2600    0.9513    0.3105 N   0  0  0  0  0  0  0  0  0  0  0  0
    4.5284    0.8387    0.7945 C   0  0  0  0  0  0  0  0  0  0  0  0
    5.1428    1.9308    1.4298 C   0  0  0  0  0  0  0  0  0  0  0  0
    6.4389    1.8138    1.9365 C   0  0  0  0  0  0  0  0  0  0  0  0
    7.1323    0.6085    1.8157 C   0  0  0  0  0  0  0  0  0  0  0  0
    6.5342   -0.4863    1.1865 C   0  0  0  0  0  0  0  0  0  0  0  0
    5.2279   -0.3823    0.6688 C   0  0  0  0  0  0  0  0  0  0  0  0
    4.6004   -1.4633    0.0253 C   0  0  0  0  0  0  0  0  0  0  0  0
    5.2052   -2.5658   -0.0905 O   0  0  0  0  0  0  0  0  0  0  0  0
  1  2  1  0
  2  3  4  0
  3  4  1  0
  4  5  4  0
  5  6  4  0
  6  7  4  0
  7  8  1  0
  8  9  1  0
  9 10  4  0
 10 11  4  0
 11 12  4  0
 12 13  1  0
 13 14  1  0
 14 15  1  0
 14 16  1  0
 14 17  1  0
 12 18  4  0
 18 19  4  0
  7 20  4  0
 20 21  4  0
  3 22  4  0
 22 23  4  0
 23 24  4  0
 24 25  4  0
 25 26  4  0
 26 27  4  0
 27 28  4  0
 28 29  4  0
 29 30  2  0
 19  9  4  0
 21  4  4  0
 28 23  4  0
 29  2  4  0
M  END
>  <SMILES>  (11) 
Cc4c(c2ccc(Oc1ccc(OC(F)(F)F)cc1)cc2)[nH]c3ccccc3c4=O

>  <NumConformers>  (11) 
16

>  <EnergyUnits>  (11) 
RDKit_forcefield

>  <Processing_Time>  (11) 
33.9s

>  <Original_Conformers>  (11) 
500

>  <Total_Conformers>  (11) 
16

>  <Energy>  (11) 
70.681881684518416

>  <Energy_Unit>  (11) 
RDKit_forcefield

>  <Rank>  (11) 
11

>  <Conformer_Index>  (11) 
10

$$$$
CK-2-63
     RDKit          3D

 30 33  0  0  0  0  0  0  0  0999 V2000
    2.7479   -0.2905   -2.6935 C   0  0  0  0  0  0  0  0  0  0  0  0
    3.3573   -0.0911   -1.3238 C   0  0  0  0  0  0  0  0  0  0  0  0
    2.6104   -0.3251   -0.1425 C   0  0  0  0  0  0  0  0  0  0  0  0
    1.1871   -0.7327   -0.1881 C   0  0  0  0  0  0  0  0  0  0  0  0
    0.2246    0.0930   -0.7901 C   0  0  0  0  0  0  0  0  0  0  0  0
   -1.1191   -0.2908   -0.8119 C   0  0  0  0  0  0  0  0  0  0  0  0
   -1.5221   -1.4962   -0.2100 C   0  0  0  0  0  0  0  0  0  0  0  0
   -2.8580   -1.9236   -0.2258 O   0  0  0  0  0  0  0  0  0  0  0  0
   -3.9809   -1.0831   -0.2124 C   0  0  0  0  0  0  0  0  0  0  0  0
   -5.1554   -1.5203   -0.8330 C   0  0  0  0  0  0  0  0  0  0  0  0
   -6.2996   -0.7175   -0.8286 C   0  0  0  0  0  0  0  0  0  0  0  0
   -6.2929    0.5292   -0.1919 C   0  0  0  0  0  0  0  0  0  0  0  0
   -7.4698    1.2947   -0.2206 O   0  0  0  0  0  0  0  0  0  0  0  0
   -7.6314    2.5798    0.3760 C   0  0  0  0  0  0  0  0  0  0  0  0
   -6.7391    3.4792   -0.1796 F   0  0  0  0  0  0  0  0  0  0  0  0
   -7.4315    2.4996    1.7425 F   0  0  0  0  0  0  0  0  0  0  0  0
   -8.9175    3.0250    0.1396 F   0  0  0  0  0  0  0  0  0  0  0  0
   -5.1172    0.9628    0.4513 C   0  0  0  0  0  0  0  0  0  0  0  0
   -3.9731    0.1591    0.4458 C   0  0  0  0  0  0  0  0  0  0  0  0
   -0.5598   -2.3199    0.3848 C   0  0  0  0  0  0  0  0  0  0  0  0
    0.7844   -1.9370    0.4075 C   0  0  0  0  0  0  0  0  0  0  0  0
    3.2055   -0.1809    1.0771 N   0  0  0  0  0  0  0  0  0  0  0  0
    4.4989    0.2256    1.2096 C   0  0  0  0  0  0  0  0  0  0  0  0
    5.0676    0.3708    2.4860 C   0  0  0  0  0  0  0  0  0  0  0  0
    6.3900    0.7982    2.6241 C   0  0  0  0  0  0  0  0  0  0  0  0
    7.1553    1.0855    1.4928 C   0  0  0  0  0  0  0  0  0  0  0  0
    6.6032    0.9457    0.2169 C   0  0  0  0  0  0  0  0  0  0  0  0
    5.2711    0.5137    0.0622 C   0  0  0  0  0  0  0  0  0  0  0  0
    4.6881    0.3575   -1.2076 C   0  0  0  0  0  0  0  0  0  0  0  0
    5.3587    0.6173   -2.2457 O   0  0  0  0  0  0  0  0  0  0  0  0
  1  2  1  0
  2  3  4  0
  3  4  1  0
  4  5  4  0
  5  6  4  0
  6  7  4  0
  7  8  1  0
  8  9  1  0
  9 10  4  0
 10 11  4  0
 11 12  4  0
 12 13  1  0
 13 14  1  0
 14 15  1  0
 14 16  1  0
 14 17  1  0
 12 18  4  0
 18 19  4  0
  7 20  4  0
 20 21  4  0
  3 22  4  0
 22 23  4  0
 23 24  4  0
 24 25  4  0
 25 26  4  0
 26 27  4  0
 27 28  4  0
 28 29  4  0
 29 30  2  0
 19  9  4  0
 21  4  4  0
 28 23  4  0
 29  2  4  0
M  END
>  <SMILES>  (12) 
Cc4c(c2ccc(Oc1ccc(OC(F)(F)F)cc1)cc2)[nH]c3ccccc3c4=O

>  <NumConformers>  (12) 
16

>  <EnergyUnits>  (12) 
RDKit_forcefield

>  <Processing_Time>  (12) 
33.9s

>  <Original_Conformers>  (12) 
500

>  <Total_Conformers>  (12) 
16

>  <Energy>  (12) 
70.681881701311966

>  <Energy_Unit>  (12) 
RDKit_forcefield

>  <Rank>  (12) 
12

>  <Conformer_Index>  (12) 
11

$$$$
CK-2-63
     RDKit          3D

 30 33  0  0  0  0  0  0  0  0999 V2000
    3.2464   -1.3897   -2.5526 C   0  0  0  0  0  0  0  0  0  0  0  0
    3.6627   -0.7180   -1.2632 C   0  0  0  0  0  0  0  0  0  0  0  0
    2.7062   -0.3182   -0.2971 C   0  0  0  0  0  0  0  0  0  0  0  0
    1.2590   -0.5762   -0.4796 C   0  0  0  0  0  0  0  0  0  0  0  0
    0.7758   -1.8879   -0.6087 C   0  0  0  0  0  0  0  0  0  0  0  0
   -0.5936   -2.1225   -0.7614 C   0  0  0  0  0  0  0  0  0  0  0  0
   -1.5001   -1.0565   -0.7628 C   0  0  0  0  0  0  0  0  0  0  0  0
   -2.8646   -1.3327   -0.9339 O   0  0  0  0  0  0  0  0  0  0  0  0
   -3.9202   -0.5740   -0.4069 C   0  0  0  0  0  0  0  0  0  0  0  0
   -3.8073    0.1099    0.8159 C   0  0  0  0  0  0  0  0  0  0  0  0
   -4.8880    0.8419    1.3156 C   0  0  0  0  0  0  0  0  0  0  0  0
   -6.0986    0.8943    0.6148 C   0  0  0  0  0  0  0  0  0  0  0  0
   -7.1500    1.6469    1.1629 O   0  0  0  0  0  0  0  0  0  0  0  0
   -8.4422    1.8030    0.5805 C   0  0  0  0  0  0  0  0  0  0  0  0
   -9.2077    2.6111    1.3984 F   0  0  0  0  0  0  0  0  0  0  0  0
   -8.3359    2.4001   -0.6629 F   0  0  0  0  0  0  0  0  0  0  0  0
   -9.0635    0.5727    0.4617 F   0  0  0  0  0  0  0  0  0  0  0  0
   -6.2166    0.1926   -0.6008 C   0  0  0  0  0  0  0  0  0  0  0  0
   -5.1349   -0.5397   -1.0995 C   0  0  0  0  0  0  0  0  0  0  0  0
   -1.0166    0.2583   -0.6386 C   0  0  0  0  0  0  0  0  0  0  0  0
    0.3527    0.4942   -0.4863 C   0  0  0  0  0  0  0  0  0  0  0  0
    3.1125    0.3282    0.8340 N   0  0  0  0  0  0  0  0  0  0  0  0
    4.4265    0.5729    1.0973 C   0  0  0  0  0  0  0  0  0  0  0  0
    4.8001    1.2324    2.2802 C   0  0  0  0  0  0  0  0  0  0  0  0
    6.1474    1.4742    2.5571 C   0  0  0  0  0  0  0  0  0  0  0  0
    7.1326    1.0601    1.6592 C   0  0  0  0  0  0  0  0  0  0  0  0
    6.7761    0.4031    0.4787 C   0  0  0  0  0  0  0  0  0  0  0  0
    5.4207    0.1540    0.1853 C   0  0  0  0  0  0  0  0  0  0  0  0
    5.0290   -0.4994   -0.9963 C   0  0  0  0  0  0  0  0  0  0  0  0
    5.9025   -0.8889   -1.8210 O   0  0  0  0  0  0  0  0  0  0  0  0
  1  2  1  0
  2  3  4  0
  3  4  1  0
  4  5  4  0
  5  6  4  0
  6  7  4  0
  7  8  1  0
  8  9  1  0
  9 10  4  0
 10 11  4  0
 11 12  4  0
 12 13  1  0
 13 14  1  0
 14 15  1  0
 14 16  1  0
 14 17  1  0
 12 18  4  0
 18 19  4  0
  7 20  4  0
 20 21  4  0
  3 22  4  0
 22 23  4  0
 23 24  4  0
 24 25  4  0
 25 26  4  0
 26 27  4  0
 27 28  4  0
 28 29  4  0
 29 30  2  0
 19  9  4  0
 21  4  4  0
 28 23  4  0
 29  2  4  0
M  END
>  <SMILES>  (13) 
Cc4c(c2ccc(Oc1ccc(OC(F)(F)F)cc1)cc2)[nH]c3ccccc3c4=O

>  <NumConformers>  (13) 
16

>  <EnergyUnits>  (13) 
RDKit_forcefield

>  <Processing_Time>  (13) 
33.9s

>  <Original_Conformers>  (13) 
500

>  <Total_Conformers>  (13) 
16

>  <Energy>  (13) 
70.691612049375365

>  <Energy_Unit>  (13) 
RDKit_forcefield

>  <Rank>  (13) 
13

>  <Conformer_Index>  (13) 
12

$$$$
CK-2-63
     RDKit          3D

 30 33  0  0  0  0  0  0  0  0999 V2000
    3.2317   -1.6680   -2.3918 C   0  0  0  0  0  0  0  0  0  0  0  0
    3.6520   -0.9195   -1.1468 C   0  0  0  0  0  0  0  0  0  0  0  0
    2.7121   -0.2068   -0.3615 C   0  0  0  0  0  0  0  0  0  0  0  0
    1.2831   -0.1219   -0.7421 C   0  0  0  0  0  0  0  0  0  0  0  0
    0.2954   -0.5871    0.1385 C   0  0  0  0  0  0  0  0  0  0  0  0
   -1.0564   -0.4931   -0.2044 C   0  0  0  0  0  0  0  0  0  0  0  0
   -1.4393    0.0902   -1.4254 C   0  0  0  0  0  0  0  0  0  0  0  0
   -2.7841    0.1874   -1.8123 O   0  0  0  0  0  0  0  0  0  0  0  0
   -3.8713    0.3502   -0.9409 C   0  0  0  0  0  0  0  0  0  0  0  0
   -5.1152   -0.1693   -1.3136 C   0  0  0  0  0  0  0  0  0  0  0  0
   -6.2276   -0.0158   -0.4804 C   0  0  0  0  0  0  0  0  0  0  0  0
   -6.1101    0.6777    0.7400 C   0  0  0  0  0  0  0  0  0  0  0  0
   -7.1916    0.8613    1.6168 O   0  0  0  0  0  0  0  0  0  0  0  0
   -8.5174    0.3828    1.4012 C   0  0  0  0  0  0  0  0  0  0  0  0
   -9.3063    0.7496    2.4741 F   0  0  0  0  0  0  0  0  0  0  0  0
   -9.0440    0.9398    0.2496 F   0  0  0  0  0  0  0  0  0  0  0  0
   -8.5158   -0.9970    1.3001 F   0  0  0  0  0  0  0  0  0  0  0  0
   -4.8683    1.2136    1.1009 C   0  0  0  0  0  0  0  0  0  0  0  0
   -3.7570    1.0592    0.2674 C   0  0  0  0  0  0  0  0  0  0  0  0
   -0.4521    0.5485   -2.3048 C   0  0  0  0  0  0  0  0  0  0  0  0
    0.9000    0.4556   -1.9629 C   0  0  0  0  0  0  0  0  0  0  0  0
    3.1173    0.4182    0.7820 N   0  0  0  0  0  0  0  0  0  0  0  0
    4.4184    0.4202    1.1855 C   0  0  0  0  0  0  0  0  0  0  0  0
    4.7924    1.0861    2.3647 C   0  0  0  0  0  0  0  0  0  0  0  0
    6.1275    1.0987    2.7740 C   0  0  0  0  0  0  0  0  0  0  0  0
    7.1003    0.4498    2.0118 C   0  0  0  0  0  0  0  0  0  0  0  0
    6.7433   -0.2165    0.8367 C   0  0  0  0  0  0  0  0  0  0  0  0
    5.3999   -0.2392    0.4124 C   0  0  0  0  0  0  0  0  0  0  0  0
    5.0075   -0.9055   -0.7617 C   0  0  0  0  0  0  0  0  0  0  0  0
    5.8704   -1.4945   -1.4711 O   0  0  0  0  0  0  0  0  0  0  0  0
  1  2  1  0
  2  3  4  0
  3  4  1  0
  4  5  4  0
  5  6  4  0
  6  7  4  0
  7  8  1  0
  8  9  1  0
  9 10  4  0
 10 11  4  0
 11 12  4  0
 12 13  1  0
 13 14  1  0
 14 15  1  0
 14 16  1  0
 14 17  1  0
 12 18  4  0
 18 19  4  0
  7 20  4  0
 20 21  4  0
  3 22  4  0
 22 23  4  0
 23 24  4  0
 24 25  4  0
 25 26  4  0
 26 27  4  0
 27 28  4  0
 28 29  4  0
 29 30  2  0
 19  9  4  0
 21  4  4  0
 28 23  4  0
 29  2  4  0
M  END
>  <SMILES>  (14) 
Cc4c(c2ccc(Oc1ccc(OC(F)(F)F)cc1)cc2)[nH]c3ccccc3c4=O

>  <NumConformers>  (14) 
16

>  <EnergyUnits>  (14) 
RDKit_forcefield

>  <Processing_Time>  (14) 
33.9s

>  <Original_Conformers>  (14) 
500

>  <Total_Conformers>  (14) 
16

>  <Energy>  (14) 
70.691612052049848

>  <Energy_Unit>  (14) 
RDKit_forcefield

>  <Rank>  (14) 
14

>  <Conformer_Index>  (14) 
13

$$$$
CK-2-63
     RDKit          3D

 30 33  0  0  0  0  0  0  0  0999 V2000
    2.7462   -0.5741   -2.6232 C   0  0  0  0  0  0  0  0  0  0  0  0
    3.4166   -0.2865   -1.2984 C   0  0  0  0  0  0  0  0  0  0  0  0
    2.6991   -0.3535   -0.0782 C   0  0  0  0  0  0  0  0  0  0  0  0
    1.2513   -0.6642   -0.0413 C   0  0  0  0  0  0  0  0  0  0  0  0
    0.7919   -1.7749    0.6816 C   0  0  0  0  0  0  0  0  0  0  0  0
   -0.5746   -2.0644    0.7364 C   0  0  0  0  0  0  0  0  0  0  0  0
   -1.5013   -1.2374    0.0921 C   0  0  0  0  0  0  0  0  0  0  0  0
   -2.8622   -1.5711    0.1578 O   0  0  0  0  0  0  0  0  0  0  0  0
   -3.9262   -0.6577    0.1217 C   0  0  0  0  0  0  0  0  0  0  0  0
   -5.1488   -1.0707   -0.4178 C   0  0  0  0  0  0  0  0  0  0  0  0
   -6.2387   -0.1957   -0.4592 C   0  0  0  0  0  0  0  0  0  0  0  0
   -6.1208    1.1099    0.0559 C   0  0  0  0  0  0  0  0  0  0  0  0
   -7.1801    2.0317    0.0399 O   0  0  0  0  0  0  0  0  0  0  0  0
   -8.4813    1.7821   -0.4872 C   0  0  0  0  0  0  0  0  0  0  0  0
   -9.2531    2.9172   -0.3318 F   0  0  0  0  0  0  0  0  0  0  0  0
   -9.0804    0.7388    0.1958 F   0  0  0  0  0  0  0  0  0  0  0  0
   -8.4000    1.4792   -1.8346 F   0  0  0  0  0  0  0  0  0  0  0  0
   -4.9017    1.5137    0.6132 C   0  0  0  0  0  0  0  0  0  0  0  0
   -3.8129    0.6384    0.6537 C   0  0  0  0  0  0  0  0  0  0  0  0
   -1.0419   -0.1261   -0.6372 C   0  0  0  0  0  0  0  0  0  0  0  0
    0.3242    0.1642   -0.6930 C   0  0  0  0  0  0  0  0  0  0  0  0
    3.3460   -0.1341    1.1032 N   0  0  0  0  0  0  0  0  0  0  0  0
    4.6674    0.1929    1.1567 C   0  0  0  0  0  0  0  0  0  0  0  0
    5.2902    0.4206    2.3952 C   0  0  0  0  0  0  0  0  0  0  0  0
    6.6420    0.7669    2.4514 C   0  0  0  0  0  0  0  0  0  0  0  0
    7.3832    0.8903    1.2751 C   0  0  0  0  0  0  0  0  0  0  0  0
    6.7773    0.6669    0.0361 C   0  0  0  0  0  0  0  0  0  0  0  0
    5.4149    0.3151   -0.0359 C   0  0  0  0  0  0  0  0  0  0  0  0
    4.7774    0.0782   -1.2663 C   0  0  0  0  0  0  0  0  0  0  0  0
    5.4256    0.1899   -2.3443 O   0  0  0  0  0  0  0  0  0  0  0  0
  1  2  1  0
  2  3  4  0
  3  4  1  0
  4  5  4  0
  5  6  4  0
  6  7  4  0
  7  8  1  0
  8  9  1  0
  9 10  4  0
 10 11  4  0
 11 12  4  0
 12 13  1  0
 13 14  1  0
 14 15  1  0
 14 16  1  0
 14 17  1  0
 12 18  4  0
 18 19  4  0
  7 20  4  0
 20 21  4  0
  3 22  4  0
 22 23  4  0
 23 24  4  0
 24 25  4  0
 25 26  4  0
 26 27  4  0
 27 28  4  0
 28 29  4  0
 29 30  2  0
 19  9  4  0
 21  4  4  0
 28 23  4  0
 29  2  4  0
M  END
>  <SMILES>  (15) 
Cc4c(c2ccc(Oc1ccc(OC(F)(F)F)cc1)cc2)[nH]c3ccccc3c4=O

>  <NumConformers>  (15) 
16

>  <EnergyUnits>  (15) 
RDKit_forcefield

>  <Processing_Time>  (15) 
33.9s

>  <Original_Conformers>  (15) 
500

>  <Total_Conformers>  (15) 
16

>  <Energy>  (15) 
70.695863397886868

>  <Energy_Unit>  (15) 
RDKit_forcefield

>  <Rank>  (15) 
15

>  <Conformer_Index>  (15) 
14

$$$$
CK-2-63
     RDKit          3D

 30 33  0  0  0  0  0  0  0  0999 V2000
    2.6758   -1.8409   -2.0058 C   0  0  0  0  0  0  0  0  0  0  0  0
    3.3749   -1.0363   -0.9330 C   0  0  0  0  0  0  0  0  0  0  0  0
    2.7203    0.0278   -0.2640 C   0  0  0  0  0  0  0  0  0  0  0  0
    1.3092    0.3767   -0.5487 C   0  0  0  0  0  0  0  0  0  0  0  0
    0.2839   -0.5592   -0.3404 C   0  0  0  0  0  0  0  0  0  0  0  0
   -1.0468   -0.2152   -0.5938 C   0  0  0  0  0  0  0  0  0  0  0  0
   -1.3725    1.0792   -1.0369 C   0  0  0  0  0  0  0  0  0  0  0  0
   -2.6938    1.4571   -1.3180 O   0  0  0  0  0  0  0  0  0  0  0  0
   -3.8359    0.9650   -0.6692 C   0  0  0  0  0  0  0  0  0  0  0  0
   -3.8162    0.5795    0.6823 C   0  0  0  0  0  0  0  0  0  0  0  0
   -4.9798    0.1095    1.2975 C   0  0  0  0  0  0  0  0  0  0  0  0
   -6.1809    0.0282    0.5832 C   0  0  0  0  0  0  0  0  0  0  0  0
   -7.3183   -0.4536    1.2512 O   0  0  0  0  0  0  0  0  0  0  0  0
   -8.6137   -0.5983    0.6730 C   0  0  0  0  0  0  0  0  0  0  0  0
   -9.4766   -1.1019    1.6270 F   0  0  0  0  0  0  0  0  0  0  0  0
   -9.0865    0.6305    0.2486 F   0  0  0  0  0  0  0  0  0  0  0  0
   -8.5646   -1.4788   -0.3929 F   0  0  0  0  0  0  0  0  0  0  0  0
   -6.2037    0.4332   -0.7657 C   0  0  0  0  0  0  0  0  0  0  0  0
   -5.0390    0.9036   -1.3800 C   0  0  0  0  0  0  0  0  0  0  0  0
   -0.3481    2.0085   -1.2487 C   0  0  0  0  0  0  0  0  0  0  0  0
    0.9832    1.6658   -0.9953 C   0  0  0  0  0  0  0  0  0  0  0  0
    3.3960    0.7637    0.6656 N   0  0  0  0  0  0  0  0  0  0  0  0
    4.6838    0.4871    1.0133 C   0  0  0  0  0  0  0  0  0  0  0  0
    5.3372    1.2650    1.9837 C   0  0  0  0  0  0  0  0  0  0  0  0
    6.6536    0.9759    2.3495 C   0  0  0  0  0  0  0  0  0  0  0  0
    7.3287   -0.0902    1.7530 C   0  0  0  0  0  0  0  0  0  0  0  0
    6.6917   -0.8727    0.7864 C   0  0  0  0  0  0  0  0  0  0  0  0
    5.3644   -0.5917    0.4061 C   0  0  0  0  0  0  0  0  0  0  0  0
    4.6976   -1.3563   -0.5672 C   0  0  0  0  0  0  0  0  0  0  0  0
    5.2855   -2.3297   -1.1164 O   0  0  0  0  0  0  0  0  0  0  0  0
  1  2  1  0
  2  3  4  0
  3  4  1  0
  4  5  4  0
  5  6  4  0
  6  7  4  0
  7  8  1  0
  8  9  1  0
  9 10  4  0
 10 11  4  0
 11 12  4  0
 12 13  1  0
 13 14  1  0
 14 15  1  0
 14 16  1  0
 14 17  1  0
 12 18  4  0
 18 19  4  0
  7 20  4  0
 20 21  4  0
  3 22  4  0
 22 23  4  0
 23 24  4  0
 24 25  4  0
 25 26  4  0
 26 27  4  0
 27 28  4  0
 28 29  4  0
 29 30  2  0
 19  9  4  0
 21  4  4  0
 28 23  4  0
 29  2  4  0
M  END
>  <SMILES>  (16) 
Cc4c(c2ccc(Oc1ccc(OC(F)(F)F)cc1)cc2)[nH]c3ccccc3c4=O

>  <NumConformers>  (16) 
16

>  <EnergyUnits>  (16) 
RDKit_forcefield

>  <Processing_Time>  (16) 
33.9s

>  <Original_Conformers>  (16) 
500

>  <Total_Conformers>  (16) 
16

>  <Energy>  (16) 
70.695863401096105

>  <Energy_Unit>  (16) 
RDKit_forcefield

>  <Rank>  (16) 
16

>  <Conformer_Index>  (16) 
15

$$$$
