CK-3-14
     RDKit          3D

 26 29  0  0  0  0  0  0  0  0999 V2000
   -1.3803    0.0957   -2.6554 C   0  0  0  0  0  0  0  0  0  0  0  0
   -2.2759    0.1167   -1.4369 C   0  0  0  0  0  0  0  0  0  0  0  0
   -1.7676   -0.1545   -0.1422 C   0  0  0  0  0  0  0  0  0  0  0  0
   -0.3301   -0.4266    0.0896 C   0  0  0  0  0  0  0  0  0  0  0  0
    0.0738   -1.6243    0.6941 C   0  0  0  0  0  0  0  0  0  0  0  0
    1.4285   -1.8674    0.9269 C   0  0  0  0  0  0  0  0  0  0  0  0
    2.3741   -0.9075    0.5570 C   0  0  0  0  0  0  0  0  0  0  0  0
    3.7303   -1.1508    0.8102 O   0  0  0  0  0  0  0  0  0  0  0  0
    4.8003   -0.4602    0.2224 C   0  0  0  0  0  0  0  0  0  0  0  0
    4.7335    0.0529   -1.0873 C   0  0  0  0  0  0  0  0  0  0  0  0
    5.8306    0.7239   -1.6368 C   0  0  0  0  0  0  0  0  0  0  0  0
    7.0031    0.8784   -0.8918 C   0  0  0  0  0  0  0  0  0  0  0  0
    8.0663    1.5277   -1.4269 F   0  0  0  0  0  0  0  0  0  0  0  0
    7.0825    0.3536    0.4011 C   0  0  0  0  0  0  0  0  0  0  0  0
    5.9873   -0.3186    0.9527 C   0  0  0  0  0  0  0  0  0  0  0  0
    1.9605    0.2634   -0.0036 N   0  0  0  0  0  0  0  0  0  0  0  0
    0.6476    0.5230   -0.2420 C   0  0  0  0  0  0  0  0  0  0  0  0
   -2.6132   -0.1746    0.9289 N   0  0  0  0  0  0  0  0  0  0  0  0
   -3.9420    0.1006    0.8094 C   0  0  0  0  0  0  0  0  0  0  0  0
   -4.7736    0.0789    1.9415 C   0  0  0  0  0  0  0  0  0  0  0  0
   -6.1340    0.3717    1.8227 C   0  0  0  0  0  0  0  0  0  0  0  0
   -6.6761    0.6896    0.5764 C   0  0  0  0  0  0  0  0  0  0  0  0
   -5.8613    0.7152   -0.5584 C   0  0  0  0  0  0  0  0  0  0  0  0
   -4.4875    0.4202   -0.4540 C   0  0  0  0  0  0  0  0  0  0  0  0
   -3.6423    0.4318   -1.5773 C   0  0  0  0  0  0  0  0  0  0  0  0
   -4.1085    0.7226   -2.7144 O   0  0  0  0  0  0  0  0  0  0  0  0
  1  2  1  0
  2  3  4  0
  3  4  1  0
  4  5  4  0
  5  6  4  0
  6  7  4  0
  7  8  1  0
  8  9  1  0
  9 10  4  0
 10 11  4  0
 11 12  4  0
 12 13  1  0
 12 14  4  0
 14 15  4  0
  7 16  4  0
 16 17  4  0
  3 18  4  0
 18 19  4  0
 19 20  4  0
 20 21  4  0
 21 22  4  0
 22 23  4  0
 23 24  4  0
 24 25  4  0
 25 26  2  0
 15  9  4  0
 17  4  4  0
 24 19  4  0
 25  2  4  0
M  END
>  <SMILES>  (1) 
Cc4c(c2ccc(Oc1ccc(F)cc1)nc2)[nH]c3ccccc3c4=O

>  <NumConformers>  (1) 
16

>  <EnergyUnits>  (1) 
RDKit_forcefield

>  <Processing_Time>  (1) 
21.3s

>  <Original_Conformers>  (1) 
500

>  <Total_Conformers>  (1) 
16

>  <Energy>  (1) 
64.733717145661416

>  <Energy_Unit>  (1) 
RDKit_forcefield

>  <Rank>  (1) 
1

>  <Conformer_Index>  (1) 
0

$$$$
CK-3-14
     RDKit          3D

 26 29  0  0  0  0  0  0  0  0999 V2000
   -1.3354    1.4457   -2.2273 C   0  0  0  0  0  0  0  0  0  0  0  0
   -2.2539    0.7812   -1.2262 C   0  0  0  0  0  0  0  0  0  0  0  0
   -1.7550    0.2264   -0.0214 C   0  0  0  0  0  0  0  0  0  0  0  0
   -0.3083    0.2281    0.2972 C   0  0  0  0  0  0  0  0  0  0  0  0
    0.1555    0.8325    1.4731 C   0  0  0  0  0  0  0  0  0  0  0  0
    1.5176    0.8151    1.7775 C   0  0  0  0  0  0  0  0  0  0  0  0
    2.4106    0.1882    0.9044 C   0  0  0  0  0  0  0  0  0  0  0  0
    3.7738    0.1591    1.2255 O   0  0  0  0  0  0  0  0  0  0  0  0
    4.8112   -0.1303    0.3270 C   0  0  0  0  0  0  0  0  0  0  0  0
    4.7387    0.2092   -1.0377 C   0  0  0  0  0  0  0  0  0  0  0  0
    5.8037   -0.0879   -1.8942 C   0  0  0  0  0  0  0  0  0  0  0  0
    6.9502   -0.7135   -1.3965 C   0  0  0  0  0  0  0  0  0  0  0  0
    7.9823   -0.9991   -2.2280 F   0  0  0  0  0  0  0  0  0  0  0  0
    7.0364   -1.0345   -0.0390 C   0  0  0  0  0  0  0  0  0  0  0  0
    5.9734   -0.7378    0.8198 C   0  0  0  0  0  0  0  0  0  0  0  0
    1.9378   -0.4191   -0.2200 N   0  0  0  0  0  0  0  0  0  0  0  0
    0.6165   -0.4143   -0.5392 C   0  0  0  0  0  0  0  0  0  0  0  0
   -2.6181   -0.3227    0.8819 N   0  0  0  0  0  0  0  0  0  0  0  0
   -3.9586   -0.3981    0.6513 C   0  0  0  0  0  0  0  0  0  0  0  0
   -4.8089   -0.9819    1.6051 C   0  0  0  0  0  0  0  0  0  0  0  0
   -6.1819   -1.0703    1.3655 C   0  0  0  0  0  0  0  0  0  0  0  0
   -6.7182   -0.5794    0.1740 C   0  0  0  0  0  0  0  0  0  0  0  0
   -5.8849    0.0038   -0.7840 C   0  0  0  0  0  0  0  0  0  0  0  0
   -4.4981    0.1014   -0.5551 C   0  0  0  0  0  0  0  0  0  0  0  0
   -3.6338    0.6875   -1.4963 C   0  0  0  0  0  0  0  0  0  0  0  0
   -4.0948    1.1331   -2.5842 O   0  0  0  0  0  0  0  0  0  0  0  0
  1  2  1  0
  2  3  4  0
  3  4  1  0
  4  5  4  0
  5  6  4  0
  6  7  4  0
  7  8  1  0
  8  9  1  0
  9 10  4  0
 10 11  4  0
 11 12  4  0
 12 13  1  0
 12 14  4  0
 14 15  4  0
  7 16  4  0
 16 17  4  0
  3 18  4  0
 18 19  4  0
 19 20  4  0
 20 21  4  0
 21 22  4  0
 22 23  4  0
 23 24  4  0
 24 25  4  0
 25 26  2  0
 15  9  4  0
 17  4  4  0
 24 19  4  0
 25  2  4  0
M  END
>  <SMILES>  (2) 
Cc4c(c2ccc(Oc1ccc(F)cc1)nc2)[nH]c3ccccc3c4=O

>  <NumConformers>  (2) 
16

>  <EnergyUnits>  (2) 
RDKit_forcefield

>  <Processing_Time>  (2) 
21.3s

>  <Original_Conformers>  (2) 
500

>  <Total_Conformers>  (2) 
16

>  <Energy>  (2) 
64.733717146400068

>  <Energy_Unit>  (2) 
RDKit_forcefield

>  <Rank>  (2) 
2

>  <Conformer_Index>  (2) 
1

$$$$
CK-3-14
     RDKit          3D

 26 29  0  0  0  0  0  0  0  0999 V2000
   -1.8352    0.4561   -2.9399 C   0  0  0  0  0  0  0  0  0  0  0  0
   -2.5012    0.2946   -1.5918 C   0  0  0  0  0  0  0  0  0  0  0  0
   -1.7680   -0.1153   -0.4505 C   0  0  0  0  0  0  0  0  0  0  0  0
   -0.3269   -0.4494   -0.5284 C   0  0  0  0  0  0  0  0  0  0  0  0
    0.1314   -1.4814   -1.3595 C   0  0  0  0  0  0  0  0  0  0  0  0
    1.4914   -1.7923   -1.4018 C   0  0  0  0  0  0  0  0  0  0  0  0
    2.3878   -1.0712   -0.6088 C   0  0  0  0  0  0  0  0  0  0  0  0
    3.7486   -1.4021   -0.6417 O   0  0  0  0  0  0  0  0  0  0  0  0
    4.7912   -0.5901   -0.1717 C   0  0  0  0  0  0  0  0  0  0  0  0
    5.9465   -1.2061    0.3265 C   0  0  0  0  0  0  0  0  0  0  0  0
    7.0145   -0.4348    0.7957 C   0  0  0  0  0  0  0  0  0  0  0  0
    6.9401    0.9603    0.7579 C   0  0  0  0  0  0  0  0  0  0  0  0
    7.9770    1.7075    1.2105 F   0  0  0  0  0  0  0  0  0  0  0  0
    5.8005    1.5847    0.2430 C   0  0  0  0  0  0  0  0  0  0  0  0
    4.7306    0.8157   -0.2261 C   0  0  0  0  0  0  0  0  0  0  0  0
    1.9203   -0.0895    0.2125 N   0  0  0  0  0  0  0  0  0  0  0  0
    0.6008    0.2321    0.2714 C   0  0  0  0  0  0  0  0  0  0  0  0
   -2.3906   -0.2044    0.7607 N   0  0  0  0  0  0  0  0  0  0  0  0
   -3.7204    0.0492    0.9133 C   0  0  0  0  0  0  0  0  0  0  0  0
   -4.3219   -0.0654    2.1777 C   0  0  0  0  0  0  0  0  0  0  0  0
   -5.6873    0.1832    2.3339 C   0  0  0  0  0  0  0  0  0  0  0  0
   -6.4639    0.5463    1.2324 C   0  0  0  0  0  0  0  0  0  0  0  0
   -5.8795    0.6642   -0.0312 C   0  0  0  0  0  0  0  0  0  0  0  0
   -4.5029    0.4182   -0.2035 C   0  0  0  0  0  0  0  0  0  0  0  0
   -3.8838    0.5338   -1.4604 C   0  0  0  0  0  0  0  0  0  0  0  0
   -4.5669    0.8548   -2.4728 O   0  0  0  0  0  0  0  0  0  0  0  0
  1  2  1  0
  2  3  4  0
  3  4  1  0
  4  5  4  0
  5  6  4  0
  6  7  4  0
  7  8  1  0
  8  9  1  0
  9 10  4  0
 10 11  4  0
 11 12  4  0
 12 13  1  0
 12 14  4  0
 14 15  4  0
  7 16  4  0
 16 17  4  0
  3 18  4  0
 18 19  4  0
 19 20  4  0
 20 21  4  0
 21 22  4  0
 22 23  4  0
 23 24  4  0
 24 25  4  0
 25 26  2  0
 15  9  4  0
 17  4  4  0
 24 19  4  0
 25  2  4  0
M  END
>  <SMILES>  (3) 
Cc4c(c2ccc(Oc1ccc(F)cc1)nc2)[nH]c3ccccc3c4=O

>  <NumConformers>  (3) 
16

>  <EnergyUnits>  (3) 
RDKit_forcefield

>  <Processing_Time>  (3) 
21.3s

>  <Original_Conformers>  (3) 
500

>  <Total_Conformers>  (3) 
16

>  <Energy>  (3) 
64.740272855277524

>  <Energy_Unit>  (3) 
RDKit_forcefield

>  <Rank>  (3) 
3

>  <Conformer_Index>  (3) 
2

$$$$
CK-3-14
     RDKit          3D

 26 29  0  0  0  0  0  0  0  0999 V2000
   -1.8371   -1.3526   -2.6306 C   0  0  0  0  0  0  0  0  0  0  0  0
   -2.5023   -0.7510   -1.4130 C   0  0  0  0  0  0  0  0  0  0  0  0
   -1.7679    0.0134   -0.4725 C   0  0  0  0  0  0  0  0  0  0  0  0
   -0.3261    0.2997   -0.6565 C   0  0  0  0  0  0  0  0  0  0  0  0
    0.1339    0.9960   -1.7832 C   0  0  0  0  0  0  0  0  0  0  0  0
    1.4946    1.2725   -1.9259 C   0  0  0  0  0  0  0  0  0  0  0  0
    2.3898    0.8540   -0.9380 C   0  0  0  0  0  0  0  0  0  0  0  0
    3.7512    1.1525   -1.0786 O   0  0  0  0  0  0  0  0  0  0  0  0
    4.7924    0.5408   -0.3651 C   0  0  0  0  0  0  0  0  0  0  0  0
    5.9491    1.2850   -0.0995 C   0  0  0  0  0  0  0  0  0  0  0  0
    7.0157    0.7113    0.5997 C   0  0  0  0  0  0  0  0  0  0  0  0
    6.9385   -0.6170    1.0276 C   0  0  0  0  0  0  0  0  0  0  0  0
    7.9740   -1.1733    1.7032 F   0  0  0  0  0  0  0  0  0  0  0  0
    5.7975   -1.3747    0.7491 C   0  0  0  0  0  0  0  0  0  0  0  0
    4.7289   -0.8031    0.0508 C   0  0  0  0  0  0  0  0  0  0  0  0
    1.9206    0.2020    0.1627 N   0  0  0  0  0  0  0  0  0  0  0  0
    0.6005   -0.0791    0.3246 C   0  0  0  0  0  0  0  0  0  0  0  0
   -2.3899    0.5011    0.6401 N   0  0  0  0  0  0  0  0  0  0  0  0
   -3.7201    0.3153    0.8678 C   0  0  0  0  0  0  0  0  0  0  0  0
   -4.3210    0.8448    2.0220 C   0  0  0  0  0  0  0  0  0  0  0  0
   -5.6868    0.6649    2.2515 C   0  0  0  0  0  0  0  0  0  0  0  0
   -6.4645   -0.0420    1.3330 C   0  0  0  0  0  0  0  0  0  0  0  0
   -5.8808   -0.5743    0.1805 C   0  0  0  0  0  0  0  0  0  0  0  0
   -4.5037   -0.4023   -0.0632 C   0  0  0  0  0  0  0  0  0  0  0  0
   -3.8853   -0.9302   -1.2101 C   0  0  0  0  0  0  0  0  0  0  0  0
   -4.5694   -1.5680   -2.0585 O   0  0  0  0  0  0  0  0  0  0  0  0
  1  2  1  0
  2  3  4  0
  3  4  1  0
  4  5  4  0
  5  6  4  0
  6  7  4  0
  7  8  1  0
  8  9  1  0
  9 10  4  0
 10 11  4  0
 11 12  4  0
 12 13  1  0
 12 14  4  0
 14 15  4  0
  7 16  4  0
 16 17  4  0
  3 18  4  0
 18 19  4  0
 19 20  4  0
 20 21  4  0
 21 22  4  0
 22 23  4  0
 23 24  4  0
 24 25  4  0
 25 26  2  0
 15  9  4  0
 17  4  4  0
 24 19  4  0
 25  2  4  0
M  END
>  <SMILES>  (4) 
Cc4c(c2ccc(Oc1ccc(F)cc1)nc2)[nH]c3ccccc3c4=O

>  <NumConformers>  (4) 
16

>  <EnergyUnits>  (4) 
RDKit_forcefield

>  <Processing_Time>  (4) 
21.3s

>  <Original_Conformers>  (4) 
500

>  <Total_Conformers>  (4) 
16

>  <Energy>  (4) 
64.74027285776252

>  <Energy_Unit>  (4) 
RDKit_forcefield

>  <Rank>  (4) 
4

>  <Conformer_Index>  (4) 
3

$$$$
CK-3-14
     RDKit          3D

 26 29  0  0  0  0  0  0  0  0999 V2000
   -2.0934    0.6873   -3.0175 C   0  0  0  0  0  0  0  0  0  0  0  0
   -2.6273    0.3421   -1.6452 C   0  0  0  0  0  0  0  0  0  0  0  0
   -1.7624   -0.0519   -0.5940 C   0  0  0  0  0  0  0  0  0  0  0  0
   -0.3015   -0.1899   -0.7963 C   0  0  0  0  0  0  0  0  0  0  0  0
    0.2157   -1.0889   -1.7398 C   0  0  0  0  0  0  0  0  0  0  0  0
    1.5964   -1.2173   -1.8985 C   0  0  0  0  0  0  0  0  0  0  0  0
    2.4552   -0.4597   -1.0979 C   0  0  0  0  0  0  0  0  0  0  0  0
    3.8394   -0.5778   -1.2782 O   0  0  0  0  0  0  0  0  0  0  0  0
    4.8147   -0.1495   -0.3656 C   0  0  0  0  0  0  0  0  0  0  0  0
    4.6010   -0.1703    1.0261 C   0  0  0  0  0  0  0  0  0  0  0  0
    5.6079    0.2546    1.8989 C   0  0  0  0  0  0  0  0  0  0  0  0
    6.8356    0.6915    1.3935 C   0  0  0  0  0  0  0  0  0  0  0  0
    7.8111    1.1013    2.2412 F   0  0  0  0  0  0  0  0  0  0  0  0
    7.0608    0.6951    0.0141 C   0  0  0  0  0  0  0  0  0  0  0  0
    6.0562    0.2700   -0.8607 C   0  0  0  0  0  0  0  0  0  0  0  0
    1.9342    0.4053   -0.1831 N   0  0  0  0  0  0  0  0  0  0  0  0
    0.5934    0.5489   -0.0102 C   0  0  0  0  0  0  0  0  0  0  0  0
   -2.2731   -0.3092    0.6452 N   0  0  0  0  0  0  0  0  0  0  0  0
   -3.6082   -0.2421    0.9079 C   0  0  0  0  0  0  0  0  0  0  0  0
   -4.0908   -0.5261    2.1964 C   0  0  0  0  0  0  0  0  0  0  0  0
   -5.4601   -0.4688    2.4648 C   0  0  0  0  0  0  0  0  0  0  0  0
   -6.3590   -0.1298    1.4522 C   0  0  0  0  0  0  0  0  0  0  0  0
   -5.8937    0.1551    0.1659 C   0  0  0  0  0  0  0  0  0  0  0  0
   -4.5148    0.1030   -0.1190 C   0  0  0  0  0  0  0  0  0  0  0  0
   -4.0144    0.3897   -1.4011 C   0  0  0  0  0  0  0  0  0  0  0  0
   -4.8087    0.6927   -2.3350 O   0  0  0  0  0  0  0  0  0  0  0  0
  1  2  1  0
  2  3  4  0
  3  4  1  0
  4  5  4  0
  5  6  4  0
  6  7  4  0
  7  8  1  0
  8  9  1  0
  9 10  4  0
 10 11  4  0
 11 12  4  0
 12 13  1  0
 12 14  4  0
 14 15  4  0
  7 16  4  0
 16 17  4  0
  3 18  4  0
 18 19  4  0
 19 20  4  0
 20 21  4  0
 21 22  4  0
 22 23  4  0
 23 24  4  0
 24 25  4  0
 25 26  2  0
 15  9  4  0
 17  4  4  0
 24 19  4  0
 25  2  4  0
M  END
>  <SMILES>  (5) 
Cc4c(c2ccc(Oc1ccc(F)cc1)nc2)[nH]c3ccccc3c4=O

>  <NumConformers>  (5) 
16

>  <EnergyUnits>  (5) 
RDKit_forcefield

>  <Processing_Time>  (5) 
21.3s

>  <Original_Conformers>  (5) 
500

>  <Total_Conformers>  (5) 
16

>  <Energy>  (5) 
64.760829508509005

>  <Energy_Unit>  (5) 
RDKit_forcefield

>  <Rank>  (5) 
5

>  <Conformer_Index>  (5) 
4

$$$$
CK-3-14
     RDKit          3D

 26 29  0  0  0  0  0  0  0  0999 V2000
   -2.0559   -0.6490   -3.0533 C   0  0  0  0  0  0  0  0  0  0  0  0
   -2.6063   -0.4083   -1.6654 C   0  0  0  0  0  0  0  0  0  0  0  0
   -1.7632   -0.0234   -0.5932 C   0  0  0  0  0  0  0  0  0  0  0  0
   -0.3126    0.2069   -0.7856 C   0  0  0  0  0  0  0  0  0  0  0  0
    0.1520    1.1827   -1.6789 C   0  0  0  0  0  0  0  0  0  0  0  0
    1.5231    1.3965   -1.8284 C   0  0  0  0  0  0  0  0  0  0  0  0
    2.4242    0.6465   -1.0682 C   0  0  0  0  0  0  0  0  0  0  0  0
    3.7993    0.8514   -1.2398 O   0  0  0  0  0  0  0  0  0  0  0  0
    4.7984    0.4301   -0.3501 C   0  0  0  0  0  0  0  0  0  0  0  0
    4.5860    0.3644    1.0405 C   0  0  0  0  0  0  0  0  0  0  0  0
    5.6164   -0.0496    1.8908 C   0  0  0  0  0  0  0  0  0  0  0  0
    6.8659   -0.3894    1.3645 C   0  0  0  0  0  0  0  0  0  0  0  0
    7.8641   -0.7888    2.1905 F   0  0  0  0  0  0  0  0  0  0  0  0
    7.0889   -0.3065   -0.0127 C   0  0  0  0  0  0  0  0  0  0  0  0
    6.0607    0.1080   -0.8651 C   0  0  0  0  0  0  0  0  0  0  0  0
    1.9538   -0.2942   -0.2018 N   0  0  0  0  0  0  0  0  0  0  0  0
    0.6235   -0.5216   -0.0389 C   0  0  0  0  0  0  0  0  0  0  0  0
   -2.2857    0.1382    0.6572 N   0  0  0  0  0  0  0  0  0  0  0  0
   -3.6145   -0.0175    0.9139 C   0  0  0  0  0  0  0  0  0  0  0  0
   -4.1103    0.1695    2.2151 C   0  0  0  0  0  0  0  0  0  0  0  0
   -5.4738    0.0213    2.4779 C   0  0  0  0  0  0  0  0  0  0  0  0
   -6.3539   -0.3127    1.4473 C   0  0  0  0  0  0  0  0  0  0  0  0
   -5.8753   -0.5018    0.1483 C   0  0  0  0  0  0  0  0  0  0  0  0
   -4.5019   -0.3574   -0.1314 C   0  0  0  0  0  0  0  0  0  0  0  0
   -3.9882   -0.5465   -1.4262 C   0  0  0  0  0  0  0  0  0  0  0  0
   -4.7656   -0.8431   -2.3761 O   0  0  0  0  0  0  0  0  0  0  0  0
  1  2  1  0
  2  3  4  0
  3  4  1  0
  4  5  4  0
  5  6  4  0
  6  7  4  0
  7  8  1  0
  8  9  1  0
  9 10  4  0
 10 11  4  0
 11 12  4  0
 12 13  1  0
 12 14  4  0
 14 15  4  0
  7 16  4  0
 16 17  4  0
  3 18  4  0
 18 19  4  0
 19 20  4  0
 20 21  4  0
 21 22  4  0
 22 23  4  0
 23 24  4  0
 24 25  4  0
 25 26  2  0
 15  9  4  0
 17  4  4  0
 24 19  4  0
 25  2  4  0
M  END
>  <SMILES>  (6) 
Cc4c(c2ccc(Oc1ccc(F)cc1)nc2)[nH]c3ccccc3c4=O

>  <NumConformers>  (6) 
16

>  <EnergyUnits>  (6) 
RDKit_forcefield

>  <Processing_Time>  (6) 
21.3s

>  <Original_Conformers>  (6) 
500

>  <Total_Conformers>  (6) 
16

>  <Energy>  (6) 
64.760829508994433

>  <Energy_Unit>  (6) 
RDKit_forcefield

>  <Rank>  (6) 
6

>  <Conformer_Index>  (6) 
5

$$$$
CK-3-14
     RDKit          3D

 26 29  0  0  0  0  0  0  0  0999 V2000
   -1.6305    0.9265   -2.6821 C   0  0  0  0  0  0  0  0  0  0  0  0
   -2.3986    0.4695   -1.4621 C   0  0  0  0  0  0  0  0  0  0  0  0
   -1.7620   -0.2342   -0.4096 C   0  0  0  0  0  0  0  0  0  0  0  0
   -0.3081   -0.5173   -0.4281 C   0  0  0  0  0  0  0  0  0  0  0  0
    0.1554   -1.8371   -0.3492 C   0  0  0  0  0  0  0  0  0  0  0  0
    1.5268   -2.0972   -0.3468 C   0  0  0  0  0  0  0  0  0  0  0  0
    2.4300   -1.0325   -0.4030 C   0  0  0  0  0  0  0  0  0  0  0  0
    3.8044   -1.3026   -0.4234 O   0  0  0  0  0  0  0  0  0  0  0  0
    4.8174   -0.3698   -0.1570 C   0  0  0  0  0  0  0  0  0  0  0  0
    4.6431    0.6869    0.7574 C   0  0  0  0  0  0  0  0  0  0  0  0
    5.6864    1.5859    1.0008 C   0  0  0  0  0  0  0  0  0  0  0  0
    6.9114    1.4327    0.3454 C   0  0  0  0  0  0  0  0  0  0  0  0
    7.9222    2.3042    0.5840 F   0  0  0  0  0  0  0  0  0  0  0  0
    7.0971    0.3739   -0.5478 C   0  0  0  0  0  0  0  0  0  0  0  0
    6.0559   -0.5270   -0.7924 C   0  0  0  0  0  0  0  0  0  0  0  0
    1.9609    0.2449   -0.4732 N   0  0  0  0  0  0  0  0  0  0  0  0
    0.6305    0.5238   -0.4792 C   0  0  0  0  0  0  0  0  0  0  0  0
   -2.4953   -0.6744    0.6540 N   0  0  0  0  0  0  0  0  0  0  0  0
   -3.8297   -0.4252    0.7680 C   0  0  0  0  0  0  0  0  0  0  0  0
   -4.5429   -0.8885    1.8862 C   0  0  0  0  0  0  0  0  0  0  0  0
   -5.9086   -0.6242    2.0103 C   0  0  0  0  0  0  0  0  0  0  0  0
   -6.5740    0.1042    1.0229 C   0  0  0  0  0  0  0  0  0  0  0  0
   -5.8778    0.5714   -0.0948 C   0  0  0  0  0  0  0  0  0  0  0  0
   -4.5002    0.3109   -0.2343 C   0  0  0  0  0  0  0  0  0  0  0  0
   -3.7725    0.7620   -1.3494 C   0  0  0  0  0  0  0  0  0  0  0  0
   -4.3513    1.4282   -2.2527 O   0  0  0  0  0  0  0  0  0  0  0  0
  1  2  1  0
  2  3  4  0
  3  4  1  0
  4  5  4  0
  5  6  4  0
  6  7  4  0
  7  8  1  0
  8  9  1  0
  9 10  4  0
 10 11  4  0
 11 12  4  0
 12 13  1  0
 12 14  4  0
 14 15  4  0
  7 16  4  0
 16 17  4  0
  3 18  4  0
 18 19  4  0
 19 20  4  0
 20 21  4  0
 21 22  4  0
 22 23  4  0
 23 24  4  0
 24 25  4  0
 25 26  2  0
 15  9  4  0
 17  4  4  0
 24 19  4  0
 25  2  4  0
M  END
>  <SMILES>  (7) 
Cc4c(c2ccc(Oc1ccc(F)cc1)nc2)[nH]c3ccccc3c4=O

>  <NumConformers>  (7) 
16

>  <EnergyUnits>  (7) 
RDKit_forcefield

>  <Processing_Time>  (7) 
21.3s

>  <Original_Conformers>  (7) 
500

>  <Total_Conformers>  (7) 
16

>  <Energy>  (7) 
64.783443167874623

>  <Energy_Unit>  (7) 
RDKit_forcefield

>  <Rank>  (7) 
7

>  <Conformer_Index>  (7) 
6

$$$$
CK-3-14
     RDKit          3D

 26 29  0  0  0  0  0  0  0  0999 V2000
   -1.6827    2.1369   -1.7391 C   0  0  0  0  0  0  0  0  0  0  0  0
   -2.4226    1.0253   -1.0291 C   0  0  0  0  0  0  0  0  0  0  0  0
   -1.7812    0.2111   -0.0626 C   0  0  0  0  0  0  0  0  0  0  0  0
   -0.3466    0.3759    0.2677 C   0  0  0  0  0  0  0  0  0  0  0  0
    0.0483    0.6451    1.5847 C   0  0  0  0  0  0  0  0  0  0  0  0
    1.4028    0.7795    1.8944 C   0  0  0  0  0  0  0  0  0  0  0  0
    2.3586    0.6235    0.8872 C   0  0  0  0  0  0  0  0  0  0  0  0
    3.7145    0.7826    1.2011 O   0  0  0  0  0  0  0  0  0  0  0  0
    4.7863    0.3520    0.4054 C   0  0  0  0  0  0  0  0  0  0  0  0
    4.7072   -0.7998   -0.4008 C   0  0  0  0  0  0  0  0  0  0  0  0
    5.8065   -1.1982   -1.1683 C   0  0  0  0  0  0  0  0  0  0  0  0
    6.9930   -0.4605   -1.1296 C   0  0  0  0  0  0  0  0  0  0  0  0
    8.0582   -0.8493   -1.8729 F   0  0  0  0  0  0  0  0  0  0  0  0
    7.0843    0.6720   -0.3156 C   0  0  0  0  0  0  0  0  0  0  0  0
    5.9870    1.0721    0.4535 C   0  0  0  0  0  0  0  0  0  0  0  0
    1.9561    0.3558   -0.3868 N   0  0  0  0  0  0  0  0  0  0  0  0
    0.6435    0.2225   -0.7140 C   0  0  0  0  0  0  0  0  0  0  0  0
   -2.4920   -0.7512    0.5941 N   0  0  0  0  0  0  0  0  0  0  0  0
   -3.8052   -0.9938    0.3250 C   0  0  0  0  0  0  0  0  0  0  0  0
   -4.4949   -2.0024    1.0184 C   0  0  0  0  0  0  0  0  0  0  0  0
   -5.8381   -2.2600    0.7359 C   0  0  0  0  0  0  0  0  0  0  0  0
   -6.5041   -1.5165   -0.2397 C   0  0  0  0  0  0  0  0  0  0  0  0
   -5.8312   -0.5102   -0.9375 C   0  0  0  0  0  0  0  0  0  0  0  0
   -4.4765   -0.2380   -0.6619 C   0  0  0  0  0  0  0  0  0  0  0  0
   -3.7729    0.7713   -1.3421 C   0  0  0  0  0  0  0  0  0  0  0  0
   -4.3524    1.4532   -2.2332 O   0  0  0  0  0  0  0  0  0  0  0  0
  1  2  1  0
  2  3  4  0
  3  4  1  0
  4  5  4  0
  5  6  4  0
  6  7  4  0
  7  8  1  0
  8  9  1  0
  9 10  4  0
 10 11  4  0
 11 12  4  0
 12 13  1  0
 12 14  4  0
 14 15  4  0
  7 16  4  0
 16 17  4  0
  3 18  4  0
 18 19  4  0
 19 20  4  0
 20 21  4  0
 21 22  4  0
 22 23  4  0
 23 24  4  0
 24 25  4  0
 25 26  2  0
 15  9  4  0
 17  4  4  0
 24 19  4  0
 25  2  4  0
M  END
>  <SMILES>  (8) 
Cc4c(c2ccc(Oc1ccc(F)cc1)nc2)[nH]c3ccccc3c4=O

>  <NumConformers>  (8) 
16

>  <EnergyUnits>  (8) 
RDKit_forcefield

>  <Processing_Time>  (8) 
21.3s

>  <Original_Conformers>  (8) 
500

>  <Total_Conformers>  (8) 
16

>  <Energy>  (8) 
64.78344316951528

>  <Energy_Unit>  (8) 
RDKit_forcefield

>  <Rank>  (8) 
8

>  <Conformer_Index>  (8) 
7

$$$$
CK-3-14
     RDKit          3D

 26 29  0  0  0  0  0  0  0  0999 V2000
   -1.4135    1.3550   -2.1353 C   0  0  0  0  0  0  0  0  0  0  0  0
   -2.3109    0.5737   -1.2018 C   0  0  0  0  0  0  0  0  0  0  0  0
   -1.7773   -0.3256   -0.2453 C   0  0  0  0  0  0  0  0  0  0  0  0
   -0.3168   -0.5115   -0.0804 C   0  0  0  0  0  0  0  0  0  0  0  0
    0.5125    0.5635    0.2672 C   0  0  0  0  0  0  0  0  0  0  0  0
    1.8828    0.3628    0.4367 C   0  0  0  0  0  0  0  0  0  0  0  0
    2.4214   -0.9219    0.2558 C   0  0  0  0  0  0  0  0  0  0  0  0
    3.7880   -1.1825    0.4287 O   0  0  0  0  0  0  0  0  0  0  0  0
    4.8280   -0.2784    0.1663 C   0  0  0  0  0  0  0  0  0  0  0  0
    6.0100   -0.3778    0.9112 C   0  0  0  0  0  0  0  0  0  0  0  0
    7.0748    0.4957    0.6686 C   0  0  0  0  0  0  0  0  0  0  0  0
    6.9695    1.4677   -0.3305 C   0  0  0  0  0  0  0  0  0  0  0  0
    8.0031    2.3129   -0.5663 F   0  0  0  0  0  0  0  0  0  0  0  0
    5.8016    1.5615   -1.0928 C   0  0  0  0  0  0  0  0  0  0  0  0
    4.7353    0.6893   -0.8520 C   0  0  0  0  0  0  0  0  0  0  0  0
    1.5917   -1.9559   -0.0478 N   0  0  0  0  0  0  0  0  0  0  0  0
    0.2536   -1.7842   -0.2163 C   0  0  0  0  0  0  0  0  0  0  0  0
   -2.6181   -1.0501    0.5489 N   0  0  0  0  0  0  0  0  0  0  0  0
   -3.9720   -0.9124    0.4877 C   0  0  0  0  0  0  0  0  0  0  0  0
   -4.7992   -1.6714    1.3323 C   0  0  0  0  0  0  0  0  0  0  0  0
   -6.1869   -1.5235    1.2788 C   0  0  0  0  0  0  0  0  0  0  0  0
   -6.7611   -0.6179    0.3852 C   0  0  0  0  0  0  0  0  0  0  0  0
   -5.9511    0.1439   -0.4609 C   0  0  0  0  0  0  0  0  0  0  0  0
   -4.5497    0.0039   -0.4193 C   0  0  0  0  0  0  0  0  0  0  0  0
   -3.7077    0.7514   -1.2610 C   0  0  0  0  0  0  0  0  0  0  0  0
   -4.2036    1.5815   -2.0733 O   0  0  0  0  0  0  0  0  0  0  0  0
  1  2  1  0
  2  3  4  0
  3  4  1  0
  4  5  4  0
  5  6  4  0
  6  7  4  0
  7  8  1  0
  8  9  1  0
  9 10  4  0
 10 11  4  0
 11 12  4  0
 12 13  1  0
 12 14  4  0
 14 15  4  0
  7 16  4  0
 16 17  4  0
  3 18  4  0
 18 19  4  0
 19 20  4  0
 20 21  4  0
 21 22  4  0
 22 23  4  0
 23 24  4  0
 24 25  4  0
 25 26  2  0
 15  9  4  0
 17  4  4  0
 24 19  4  0
 25  2  4  0
M  END
>  <SMILES>  (9) 
Cc4c(c2ccc(Oc1ccc(F)cc1)nc2)[nH]c3ccccc3c4=O

>  <NumConformers>  (9) 
16

>  <EnergyUnits>  (9) 
RDKit_forcefield

>  <Processing_Time>  (9) 
21.3s

>  <Original_Conformers>  (9) 
500

>  <Total_Conformers>  (9) 
16

>  <Energy>  (9) 
66.541567851839503

>  <Energy_Unit>  (9) 
RDKit_forcefield

>  <Rank>  (9) 
9

>  <Conformer_Index>  (9) 
8

$$$$
CK-3-14
     RDKit          3D

 26 29  0  0  0  0  0  0  0  0999 V2000
   -1.4669    1.9124   -1.5510 C   0  0  0  0  0  0  0  0  0  0  0  0
   -2.3386    0.8623   -0.8993 C   0  0  0  0  0  0  0  0  0  0  0  0
   -1.8002   -0.0865    0.0053 C   0  0  0  0  0  0  0  0  0  0  0  0
   -0.3537   -0.1272    0.3225 C   0  0  0  0  0  0  0  0  0  0  0  0
    0.5993   -0.3423   -0.6823 C   0  0  0  0  0  0  0  0  0  0  0  0
    1.9557   -0.3964   -0.3592 C   0  0  0  0  0  0  0  0  0  0  0  0
    2.3554   -0.2334    0.9776 C   0  0  0  0  0  0  0  0  0  0  0  0
    3.7028   -0.2943    1.3598 O   0  0  0  0  0  0  0  0  0  0  0  0
    4.7910    0.1077    0.5710 C   0  0  0  0  0  0  0  0  0  0  0  0
    4.6900    1.1616   -0.3569 C   0  0  0  0  0  0  0  0  0  0  0  0
    5.8034    1.5429   -1.1123 C   0  0  0  0  0  0  0  0  0  0  0  0
    7.0253    0.8863   -0.9400 C   0  0  0  0  0  0  0  0  0  0  0  0
    8.1043    1.2581   -1.6719 F   0  0  0  0  0  0  0  0  0  0  0  0
    7.1365   -0.1477   -0.0059 C   0  0  0  0  0  0  0  0  0  0  0  0
    6.0246   -0.5307    0.7509 C   0  0  0  0  0  0  0  0  0  0  0  0
    1.4098   -0.0600    1.9397 N   0  0  0  0  0  0  0  0  0  0  0  0
    0.0829   -0.0054    1.6484 C   0  0  0  0  0  0  0  0  0  0  0  0
   -2.6238   -0.9901    0.6118 N   0  0  0  0  0  0  0  0  0  0  0  0
   -3.9593   -1.0453    0.3483 C   0  0  0  0  0  0  0  0  0  0  0  0
   -4.7677   -1.9995    0.9883 C   0  0  0  0  0  0  0  0  0  0  0  0
   -6.1349   -2.0650    0.7110 C   0  0  0  0  0  0  0  0  0  0  0  0
   -6.7070   -1.1822   -0.2063 C   0  0  0  0  0  0  0  0  0  0  0  0
   -5.9154   -0.2279   -0.8506 C   0  0  0  0  0  0  0  0  0  0  0  0
   -4.5351   -0.1490   -0.5795 C   0  0  0  0  0  0  0  0  0  0  0  0
   -3.7126    0.8032   -1.2067 C   0  0  0  0  0  0  0  0  0  0  0  0
   -4.2061    1.6084   -2.0451 O   0  0  0  0  0  0  0  0  0  0  0  0
  1  2  1  0
  2  3  4  0
  3  4  1  0
  4  5  4  0
  5  6  4  0
  6  7  4  0
  7  8  1  0
  8  9  1  0
  9 10  4  0
 10 11  4  0
 11 12  4  0
 12 13  1  0
 12 14  4  0
 14 15  4  0
  7 16  4  0
 16 17  4  0
  3 18  4  0
 18 19  4  0
 19 20  4  0
 20 21  4  0
 21 22  4  0
 22 23  4  0
 23 24  4  0
 24 25  4  0
 25 26  2  0
 15  9  4  0
 17  4  4  0
 24 19  4  0
 25  2  4  0
M  END
>  <SMILES>  (10) 
Cc4c(c2ccc(Oc1ccc(F)cc1)nc2)[nH]c3ccccc3c4=O

>  <NumConformers>  (10) 
16

>  <EnergyUnits>  (10) 
RDKit_forcefield

>  <Processing_Time>  (10) 
21.3s

>  <Original_Conformers>  (10) 
500

>  <Total_Conformers>  (10) 
16

>  <Energy>  (10) 
66.541567852140645

>  <Energy_Unit>  (10) 
RDKit_forcefield

>  <Rank>  (10) 
10

>  <Conformer_Index>  (10) 
9

$$$$
CK-3-14
     RDKit          3D

 26 29  0  0  0  0  0  0  0  0999 V2000
   -1.7918    1.3781   -2.5239 C   0  0  0  0  0  0  0  0  0  0  0  0
   -2.4964    0.5911   -1.4416 C   0  0  0  0  0  0  0  0  0  0  0  0
   -1.7755   -0.2229   -0.5329 C   0  0  0  0  0  0  0  0  0  0  0  0
   -0.3052   -0.3796   -0.6243 C   0  0  0  0  0  0  0  0  0  0  0  0
    0.5088   -0.0528    0.4673 C   0  0  0  0  0  0  0  0  0  0  0  0
    1.8915   -0.2214    0.3839 C   0  0  0  0  0  0  0  0  0  0  0  0
    2.4574   -0.7202   -0.8012 C   0  0  0  0  0  0  0  0  0  0  0  0
    3.8381   -0.9242   -0.9334 O   0  0  0  0  0  0  0  0  0  0  0  0
    4.8367   -0.1603   -0.3111 C   0  0  0  0  0  0  0  0  0  0  0  0
    4.6642    1.2094   -0.0355 C   0  0  0  0  0  0  0  0  0  0  0  0
    5.6910    1.9396    0.5711 C   0  0  0  0  0  0  0  0  0  0  0  0
    6.8985    1.3144    0.8955 C   0  0  0  0  0  0  0  0  0  0  0  0
    7.8937    2.0240    1.4821 F   0  0  0  0  0  0  0  0  0  0  0  0
    7.0825   -0.0408    0.6061 C   0  0  0  0  0  0  0  0  0  0  0  0
    6.0573   -0.7731   -0.0008 C   0  0  0  0  0  0  0  0  0  0  0  0
    1.6437   -1.0633   -1.8355 N   0  0  0  0  0  0  0  0  0  0  0  0
    0.2944   -0.9074   -1.7768 C   0  0  0  0  0  0  0  0  0  0  0  0
   -2.4382   -0.8820    0.4616 N   0  0  0  0  0  0  0  0  0  0  0  0
   -3.7926   -0.8213    0.5947 C   0  0  0  0  0  0  0  0  0  0  0  0
   -4.4341   -1.5250    1.6277 C   0  0  0  0  0  0  0  0  0  0  0  0
   -5.8236   -1.4730    1.7589 C   0  0  0  0  0  0  0  0  0  0  0  0
   -6.5845   -0.7215    0.8621 C   0  0  0  0  0  0  0  0  0  0  0  0
   -5.9604   -0.0165   -0.1703 C   0  0  0  0  0  0  0  0  0  0  0  0
   -4.5593   -0.0582   -0.3138 C   0  0  0  0  0  0  0  0  0  0  0  0
   -3.9008    0.6443   -1.3382 C   0  0  0  0  0  0  0  0  0  0  0  0
   -4.5684    1.3260   -2.1655 O   0  0  0  0  0  0  0  0  0  0  0  0
  1  2  1  0
  2  3  4  0
  3  4  1  0
  4  5  4  0
  5  6  4  0
  6  7  4  0
  7  8  1  0
  8  9  1  0
  9 10  4  0
 10 11  4  0
 11 12  4  0
 12 13  1  0
 12 14  4  0
 14 15  4  0
  7 16  4  0
 16 17  4  0
  3 18  4  0
 18 19  4  0
 19 20  4  0
 20 21  4  0
 21 22  4  0
 22 23  4  0
 23 24  4  0
 24 25  4  0
 25 26  2  0
 15  9  4  0
 17  4  4  0
 24 19  4  0
 25  2  4  0
M  END
>  <SMILES>  (11) 
Cc4c(c2ccc(Oc1ccc(F)cc1)nc2)[nH]c3ccccc3c4=O

>  <NumConformers>  (11) 
16

>  <EnergyUnits>  (11) 
RDKit_forcefield

>  <Processing_Time>  (11) 
21.3s

>  <Original_Conformers>  (11) 
500

>  <Total_Conformers>  (11) 
16

>  <Energy>  (11) 
66.604424815486041

>  <Energy_Unit>  (11) 
RDKit_forcefield

>  <Rank>  (11) 
11

>  <Conformer_Index>  (11) 
10

$$$$
CK-3-14
     RDKit          3D

 26 29  0  0  0  0  0  0  0  0999 V2000
   -1.6348    0.0304   -2.9916 C   0  0  0  0  0  0  0  0  0  0  0  0
   -2.4070   -0.1758   -1.7077 C   0  0  0  0  0  0  0  0  0  0  0  0
   -1.8059    0.0380   -0.4424 C   0  0  0  0  0  0  0  0  0  0  0  0
   -0.4096    0.5157   -0.3137 C   0  0  0  0  0  0  0  0  0  0  0  0
    0.5300   -0.2346    0.4042 C   0  0  0  0  0  0  0  0  0  0  0  0
    1.8390    0.2293    0.5403 C   0  0  0  0  0  0  0  0  0  0  0  0
    2.2043    1.4518   -0.0475 C   0  0  0  0  0  0  0  0  0  0  0  0
    3.5006    1.9722    0.0716 O   0  0  0  0  0  0  0  0  0  0  0  0
    4.6766    1.2132    0.1655 C   0  0  0  0  0  0  0  0  0  0  0  0
    4.8094   -0.0369   -0.4680 C   0  0  0  0  0  0  0  0  0  0  0  0
    6.0050   -0.7548   -0.3639 C   0  0  0  0  0  0  0  0  0  0  0  0
    7.0781   -0.2277    0.3604 C   0  0  0  0  0  0  0  0  0  0  0  0
    8.2372   -0.9241    0.4591 F   0  0  0  0  0  0  0  0  0  0  0  0
    6.9587    1.0221    0.9750 C   0  0  0  0  0  0  0  0  0  0  0  0
    5.7642    1.7421    0.8720 C   0  0  0  0  0  0  0  0  0  0  0  0
    1.2658    2.1796   -0.7102 N   0  0  0  0  0  0  0  0  0  0  0  0
   -0.0149    1.7473   -0.8556 C   0  0  0  0  0  0  0  0  0  0  0  0
   -2.5172   -0.2036    0.6970 N   0  0  0  0  0  0  0  0  0  0  0  0
   -3.8173   -0.6097    0.6682 C   0  0  0  0  0  0  0  0  0  0  0  0
   -4.5144   -0.8364    1.8667 C   0  0  0  0  0  0  0  0  0  0  0  0
   -5.8505   -1.2419    1.8391 C   0  0  0  0  0  0  0  0  0  0  0  0
   -6.5027   -1.4233    0.6185 C   0  0  0  0  0  0  0  0  0  0  0  0
   -5.8223   -1.2016   -0.5815 C   0  0  0  0  0  0  0  0  0  0  0  0
   -4.4736   -0.7940   -0.5692 C   0  0  0  0  0  0  0  0  0  0  0  0
   -3.7595   -0.5682   -1.7589 C   0  0  0  0  0  0  0  0  0  0  0  0
   -4.3300   -0.7198   -2.8754 O   0  0  0  0  0  0  0  0  0  0  0  0
  1  2  1  0
  2  3  4  0
  3  4  1  0
  4  5  4  0
  5  6  4  0
  6  7  4  0
  7  8  1  0
  8  9  1  0
  9 10  4  0
 10 11  4  0
 11 12  4  0
 12 13  1  0
 12 14  4  0
 14 15  4  0
  7 16  4  0
 16 17  4  0
  3 18  4  0
 18 19  4  0
 19 20  4  0
 20 21  4  0
 21 22  4  0
 22 23  4  0
 23 24  4  0
 24 25  4  0
 25 26  2  0
 15  9  4  0
 17  4  4  0
 24 19  4  0
 25  2  4  0
M  END
>  <SMILES>  (12) 
Cc4c(c2ccc(Oc1ccc(F)cc1)nc2)[nH]c3ccccc3c4=O

>  <NumConformers>  (12) 
16

>  <EnergyUnits>  (12) 
RDKit_forcefield

>  <Processing_Time>  (12) 
21.3s

>  <Original_Conformers>  (12) 
500

>  <Total_Conformers>  (12) 
16

>  <Energy>  (12) 
66.604424816399316

>  <Energy_Unit>  (12) 
RDKit_forcefield

>  <Rank>  (12) 
12

>  <Conformer_Index>  (12) 
11

$$$$
CK-3-14
     RDKit          3D

 26 29  0  0  0  0  0  0  0  0999 V2000
   -1.6414    0.1681   -3.0021 C   0  0  0  0  0  0  0  0  0  0  0  0
   -2.4034   -0.1138   -1.7265 C   0  0  0  0  0  0  0  0  0  0  0  0
   -1.8185    0.1019   -0.4538 C   0  0  0  0  0  0  0  0  0  0  0  0
   -0.4204    0.5688   -0.3069 C   0  0  0  0  0  0  0  0  0  0  0  0
    0.6482   -0.1784   -0.8204 C   0  0  0  0  0  0  0  0  0  0  0  0
    1.9588    0.2706   -0.6540 C   0  0  0  0  0  0  0  0  0  0  0  0
    2.1977    1.4615    0.0518 C   0  0  0  0  0  0  0  0  0  0  0  0
    3.4923    1.9685    0.2320 O   0  0  0  0  0  0  0  0  0  0  0  0
    4.6586    1.1982    0.3511 C   0  0  0  0  0  0  0  0  0  0  0  0
    5.8720    1.7419   -0.0892 C   0  0  0  0  0  0  0  0  0  0  0  0
    7.0584    1.0107    0.0268 C   0  0  0  0  0  0  0  0  0  0  0  0
    7.0415   -0.2658    0.5964 C   0  0  0  0  0  0  0  0  0  0  0  0
    8.1925   -0.9731    0.7102 F   0  0  0  0  0  0  0  0  0  0  0  0
    5.8385   -0.8086    1.0572 C   0  0  0  0  0  0  0  0  0  0  0  0
    4.6508   -0.0794    0.9421 C   0  0  0  0  0  0  0  0  0  0  0  0
    1.1443    2.1704    0.5393 N   0  0  0  0  0  0  0  0  0  0  0  0
   -0.1408    1.7534    0.3871 C   0  0  0  0  0  0  0  0  0  0  0  0
   -2.5517   -0.1169    0.6763 N   0  0  0  0  0  0  0  0  0  0  0  0
   -3.8314   -0.5817    0.6323 C   0  0  0  0  0  0  0  0  0  0  0  0
   -4.5451   -0.8030    1.8220 C   0  0  0  0  0  0  0  0  0  0  0  0
   -5.8532   -1.2902    1.7791 C   0  0  0  0  0  0  0  0  0  0  0  0
   -6.4599   -1.5620    0.5518 C   0  0  0  0  0  0  0  0  0  0  0  0
   -5.7624   -1.3470   -0.6397 C   0  0  0  0  0  0  0  0  0  0  0  0
   -4.4428   -0.8541   -0.6119 C   0  0  0  0  0  0  0  0  0  0  0  0
   -3.7163   -0.6216   -1.7928 C   0  0  0  0  0  0  0  0  0  0  0  0
   -4.2417   -0.8658   -2.9149 O   0  0  0  0  0  0  0  0  0  0  0  0
  1  2  1  0
  2  3  4  0
  3  4  1  0
  4  5  4  0
  5  6  4  0
  6  7  4  0
  7  8  1  0
  8  9  1  0
  9 10  4  0
 10 11  4  0
 11 12  4  0
 12 13  1  0
 12 14  4  0
 14 15  4  0
  7 16  4  0
 16 17  4  0
  3 18  4  0
 18 19  4  0
 19 20  4  0
 20 21  4  0
 21 22  4  0
 22 23  4  0
 23 24  4  0
 24 25  4  0
 25 26  2  0
 15  9  4  0
 17  4  4  0
 24 19  4  0
 25  2  4  0
M  END
>  <SMILES>  (13) 
Cc4c(c2ccc(Oc1ccc(F)cc1)nc2)[nH]c3ccccc3c4=O

>  <NumConformers>  (13) 
16

>  <EnergyUnits>  (13) 
RDKit_forcefield

>  <Processing_Time>  (13) 
21.3s

>  <Original_Conformers>  (13) 
500

>  <Total_Conformers>  (13) 
16

>  <Energy>  (13) 
66.625002982236424

>  <Energy_Unit>  (13) 
RDKit_forcefield

>  <Rank>  (13) 
13

>  <Conformer_Index>  (13) 
12

$$$$
CK-3-14
     RDKit          3D

 26 29  0  0  0  0  0  0  0  0999 V2000
   -1.6877    0.4953   -2.9361 C   0  0  0  0  0  0  0  0  0  0  0  0
   -2.4276    0.0567   -1.6922 C   0  0  0  0  0  0  0  0  0  0  0  0
   -1.7387   -0.4616   -0.5674 C   0  0  0  0  0  0  0  0  0  0  0  0
   -0.2609   -0.5575   -0.5339 C   0  0  0  0  0  0  0  0  0  0  0  0
    0.5401    0.5848   -0.6667 C   0  0  0  0  0  0  0  0  0  0  0  0
    1.9300    0.4740   -0.6131 C   0  0  0  0  0  0  0  0  0  0  0  0
    2.5159   -0.7851   -0.4009 C   0  0  0  0  0  0  0  0  0  0  0  0
    3.9067   -0.9567   -0.3575 O   0  0  0  0  0  0  0  0  0  0  0  0
    4.8295   -0.0083    0.1080 C   0  0  0  0  0  0  0  0  0  0  0  0
    4.5125    0.8966    1.1387 C   0  0  0  0  0  0  0  0  0  0  0  0
    5.4668    1.8158    1.5861 C   0  0  0  0  0  0  0  0  0  0  0  0
    6.7444    1.8315    1.0191 C   0  0  0  0  0  0  0  0  0  0  0  0
    7.6690    2.7221    1.4549 F   0  0  0  0  0  0  0  0  0  0  0  0
    7.0710    0.9221    0.0089 C   0  0  0  0  0  0  0  0  0  0  0  0
    6.1185    0.0017   -0.4399 C   0  0  0  0  0  0  0  0  0  0  0  0
    1.7179   -1.8794   -0.2768 N   0  0  0  0  0  0  0  0  0  0  0  0
    0.3619   -1.7956   -0.3281 C   0  0  0  0  0  0  0  0  0  0  0  0
   -2.4417   -0.8931    0.5199 N   0  0  0  0  0  0  0  0  0  0  0  0
   -3.7996   -0.8066    0.5870 C   0  0  0  0  0  0  0  0  0  0  0  0
   -4.4813   -1.2533    1.7312 C   0  0  0  0  0  0  0  0  0  0  0  0
   -5.8724   -1.1549    1.8064 C   0  0  0  0  0  0  0  0  0  0  0  0
   -6.5947   -0.6099    0.7437 C   0  0  0  0  0  0  0  0  0  0  0  0
   -5.9304   -0.1613   -0.4008 C   0  0  0  0  0  0  0  0  0  0  0  0
   -4.5275   -0.2559   -0.4913 C   0  0  0  0  0  0  0  0  0  0  0  0
   -3.8300    0.1810   -1.6311 C   0  0  0  0  0  0  0  0  0  0  0  0
   -4.4612    0.6832   -2.6028 O   0  0  0  0  0  0  0  0  0  0  0  0
  1  2  1  0
  2  3  4  0
  3  4  1  0
  4  5  4  0
  5  6  4  0
  6  7  4  0
  7  8  1  0
  8  9  1  0
  9 10  4  0
 10 11  4  0
 11 12  4  0
 12 13  1  0
 12 14  4  0
 14 15  4  0
  7 16  4  0
 16 17  4  0
  3 18  4  0
 18 19  4  0
 19 20  4  0
 20 21  4  0
 21 22  4  0
 22 23  4  0
 23 24  4  0
 24 25  4  0
 25 26  2  0
 15  9  4  0
 17  4  4  0
 24 19  4  0
 25  2  4  0
M  END
>  <SMILES>  (14) 
Cc4c(c2ccc(Oc1ccc(F)cc1)nc2)[nH]c3ccccc3c4=O

>  <NumConformers>  (14) 
16

>  <EnergyUnits>  (14) 
RDKit_forcefield

>  <Processing_Time>  (14) 
21.3s

>  <Original_Conformers>  (14) 
500

>  <Total_Conformers>  (14) 
16

>  <Energy>  (14) 
66.625002983124759

>  <Energy_Unit>  (14) 
RDKit_forcefield

>  <Rank>  (14) 
14

>  <Conformer_Index>  (14) 
13

$$$$
CK-3-14
     RDKit          3D

 26 29  0  0  0  0  0  0  0  0999 V2000
   -1.9392   -0.4228   -3.2897 C   0  0  0  0  0  0  0  0  0  0  0  0
   -2.5451   -0.4226   -1.9041 C   0  0  0  0  0  0  0  0  0  0  0  0
   -1.7346   -0.3513   -0.7438 C   0  0  0  0  0  0  0  0  0  0  0  0
   -0.2559   -0.3194   -0.8259 C   0  0  0  0  0  0  0  0  0  0  0  0
    0.4585    0.7487   -0.2694 C   0  0  0  0  0  0  0  0  0  0  0  0
    1.8525    0.7657   -0.3315 C   0  0  0  0  0  0  0  0  0  0  0  0
    2.5314   -0.3070   -0.9332 C   0  0  0  0  0  0  0  0  0  0  0  0
    3.9290   -0.3321   -1.0402 O   0  0  0  0  0  0  0  0  0  0  0  0
    4.8257    0.2395   -0.1253 C   0  0  0  0  0  0  0  0  0  0  0  0
    6.0627    0.7001   -0.5937 C   0  0  0  0  0  0  0  0  0  0  0  0
    6.9893    1.2621    0.2903 C   0  0  0  0  0  0  0  0  0  0  0  0
    6.6898    1.3556    1.6526 C   0  0  0  0  0  0  0  0  0  0  0  0
    7.5895    1.8988    2.5091 F   0  0  0  0  0  0  0  0  0  0  0  0
    5.4660    0.8802    2.1325 C   0  0  0  0  0  0  0  0  0  0  0  0
    4.5377    0.3181    1.2504 C   0  0  0  0  0  0  0  0  0  0  0  0
    1.8162   -1.3330   -1.4675 N   0  0  0  0  0  0  0  0  0  0  0  0
    0.4579   -1.3689   -1.4221 C   0  0  0  0  0  0  0  0  0  0  0  0
   -2.3170   -0.3038    0.4895 N   0  0  0  0  0  0  0  0  0  0  0  0
   -3.6675   -0.3650    0.6570 C   0  0  0  0  0  0  0  0  0  0  0  0
   -4.2231   -0.3236    1.9466 C   0  0  0  0  0  0  0  0  0  0  0  0
   -5.6068   -0.3976    2.1208 C   0  0  0  0  0  0  0  0  0  0  0  0
   -6.4473   -0.5147    1.0126 C   0  0  0  0  0  0  0  0  0  0  0  0
   -5.9091   -0.5571   -0.2761 C   0  0  0  0  0  0  0  0  0  0  0  0
   -4.5152   -0.4816   -0.4672 C   0  0  0  0  0  0  0  0  0  0  0  0
   -3.9429   -0.5156   -1.7508 C   0  0  0  0  0  0  0  0  0  0  0  0
   -4.6825   -0.6271   -2.7684 O   0  0  0  0  0  0  0  0  0  0  0  0
  1  2  1  0
  2  3  4  0
  3  4  1  0
  4  5  4  0
  5  6  4  0
  6  7  4  0
  7  8  1  0
  8  9  1  0
  9 10  4  0
 10 11  4  0
 11 12  4  0
 12 13  1  0
 12 14  4  0
 14 15  4  0
  7 16  4  0
 16 17  4  0
  3 18  4  0
 18 19  4  0
 19 20  4  0
 20 21  4  0
 21 22  4  0
 22 23  4  0
 23 24  4  0
 24 25  4  0
 25 26  2  0
 15  9  4  0
 17  4  4  0
 24 19  4  0
 25  2  4  0
M  END
>  <SMILES>  (15) 
Cc4c(c2ccc(Oc1ccc(F)cc1)nc2)[nH]c3ccccc3c4=O

>  <NumConformers>  (15) 
16

>  <EnergyUnits>  (15) 
RDKit_forcefield

>  <Processing_Time>  (15) 
21.3s

>  <Original_Conformers>  (15) 
500

>  <Total_Conformers>  (15) 
16

>  <Energy>  (15) 
66.650411457768058

>  <Energy_Unit>  (15) 
RDKit_forcefield

>  <Rank>  (15) 
15

>  <Conformer_Index>  (15) 
14

$$$$
CK-3-14
     RDKit          3D

 26 29  0  0  0  0  0  0  0  0999 V2000
   -1.8597   -1.0822   -3.1776 C   0  0  0  0  0  0  0  0  0  0  0  0
   -2.5031   -0.7711   -1.8449 C   0  0  0  0  0  0  0  0  0  0  0  0
   -1.7442   -0.2712   -0.7574 C   0  0  0  0  0  0  0  0  0  0  0  0
   -0.2961    0.0145   -0.8826 C   0  0  0  0  0  0  0  0  0  0  0  0
    0.6233   -0.6184   -0.0371 C   0  0  0  0  0  0  0  0  0  0  0  0
    1.9849   -0.3322   -0.1450 C   0  0  0  0  0  0  0  0  0  0  0  0
    2.4206    0.6122   -1.0894 C   0  0  0  0  0  0  0  0  0  0  0  0
    3.7777    0.9233   -1.2536 O   0  0  0  0  0  0  0  0  0  0  0  0
    4.7455    0.9045   -0.2383 C   0  0  0  0  0  0  0  0  0  0  0  0
    4.4297    1.2140    1.0982 C   0  0  0  0  0  0  0  0  0  0  0  0
    5.4274    1.2004    2.0781 C   0  0  0  0  0  0  0  0  0  0  0  0
    6.7458    0.8910    1.7315 C   0  0  0  0  0  0  0  0  0  0  0  0
    7.7123    0.8799    2.6823 F   0  0  0  0  0  0  0  0  0  0  0  0
    7.0688    0.6023    0.4025 C   0  0  0  0  0  0  0  0  0  0  0  0
    6.0729    0.6155   -0.5793 C   0  0  0  0  0  0  0  0  0  0  0  0
    1.5092    1.2135   -1.9002 N   0  0  0  0  0  0  0  0  0  0  0  0
    0.1787    0.9474   -1.8157 C   0  0  0  0  0  0  0  0  0  0  0  0
   -2.3478   -0.0476    0.4460 N   0  0  0  0  0  0  0  0  0  0  0  0
   -3.6815   -0.2490    0.6373 C   0  0  0  0  0  0  0  0  0  0  0  0
   -4.2627    0.0048    1.8908 C   0  0  0  0  0  0  0  0  0  0  0  0
   -5.6318   -0.1904    2.0856 C   0  0  0  0  0  0  0  0  0  0  0  0
   -6.4324   -0.6382    1.0336 C   0  0  0  0  0  0  0  0  0  0  0  0
   -5.8684   -0.8948   -0.2187 C   0  0  0  0  0  0  0  0  0  0  0  0
   -4.4883   -0.7041   -0.4294 C   0  0  0  0  0  0  0  0  0  0  0  0
   -3.8895   -0.9588   -1.6755 C   0  0  0  0  0  0  0  0  0  0  0  0
   -4.5942   -1.3589   -2.6440 O   0  0  0  0  0  0  0  0  0  0  0  0
  1  2  1  0
  2  3  4  0
  3  4  1  0
  4  5  4  0
  5  6  4  0
  6  7  4  0
  7  8  1  0
  8  9  1  0
  9 10  4  0
 10 11  4  0
 11 12  4  0
 12 13  1  0
 12 14  4  0
 14 15  4  0
  7 16  4  0
 16 17  4  0
  3 18  4  0
 18 19  4  0
 19 20  4  0
 20 21  4  0
 21 22  4  0
 22 23  4  0
 23 24  4  0
 24 25  4  0
 25 26  2  0
 15  9  4  0
 17  4  4  0
 24 19  4  0
 25  2  4  0
M  END
>  <SMILES>  (16) 
Cc4c(c2ccc(Oc1ccc(F)cc1)nc2)[nH]c3ccccc3c4=O

>  <NumConformers>  (16) 
16

>  <EnergyUnits>  (16) 
RDKit_forcefield

>  <Processing_Time>  (16) 
21.3s

>  <Original_Conformers>  (16) 
500

>  <Total_Conformers>  (16) 
16

>  <Energy>  (16) 
66.650411457847824

>  <Energy_Unit>  (16) 
RDKit_forcefield

>  <Rank>  (16) 
16

>  <Conformer_Index>  (16) 
15

$$$$
