CK-3-23
     RDKit          3D

 26 29  0  0  0  0  0  0  0  0999 V2000
   -4.5857   -2.6936    0.0757 C   0  0  0  0  0  0  0  0  0  0  0  0
   -4.0974   -1.9085   -1.0045 O   0  0  0  0  0  0  0  0  0  0  0  0
   -3.4520   -0.6877   -0.7834 C   0  0  0  0  0  0  0  0  0  0  0  0
   -2.0734   -0.6554   -0.4804 C   0  0  0  0  0  0  0  0  0  0  0  0
   -1.2786   -1.9394   -0.4631 C   0  0  0  0  0  0  0  0  0  0  0  0
   -1.4653    0.5953   -0.2058 C   0  0  0  0  0  0  0  0  0  0  0  0
   -0.0456    0.7218    0.1864 C   0  0  0  0  0  0  0  0  0  0  0  0
    0.8024    1.5782   -0.5320 C   0  0  0  0  0  0  0  0  0  0  0  0
    2.1422    1.7206   -0.1599 C   0  0  0  0  0  0  0  0  0  0  0  0
    2.6468    1.0264    0.9507 C   0  0  0  0  0  0  0  0  0  0  0  0
    4.0989    1.1462    1.3253 C   0  0  0  0  0  0  0  0  0  0  0  0
    4.9081    0.1019    0.6054 C   0  0  0  0  0  0  0  0  0  0  0  0
    5.4393    0.3696   -0.6676 C   0  0  0  0  0  0  0  0  0  0  0  0
    6.1595   -0.6149   -1.3513 C   0  0  0  0  0  0  0  0  0  0  0  0
    6.3465   -1.8740   -0.7742 C   0  0  0  0  0  0  0  0  0  0  0  0
    5.8106   -2.1519    0.4863 C   0  0  0  0  0  0  0  0  0  0  0  0
    5.0898   -1.1703    1.1736 C   0  0  0  0  0  0  0  0  0  0  0  0
    1.7961    0.1780    1.6763 C   0  0  0  0  0  0  0  0  0  0  0  0
    0.4566    0.0354    1.3038 C   0  0  0  0  0  0  0  0  0  0  0  0
   -2.1963    1.7370   -0.3144 N   0  0  0  0  0  0  0  0  0  0  0  0
   -3.5116    1.7342   -0.6457 C   0  0  0  0  0  0  0  0  0  0  0  0
   -4.2082    2.9446   -0.7409 C   0  0  0  0  0  0  0  0  0  0  0  0
   -5.5659    2.9471   -1.0711 C   0  0  0  0  0  0  0  0  0  0  0  0
   -6.2324    1.7418   -1.3063 C   0  0  0  0  0  0  0  0  0  0  0  0
   -5.5448    0.5277   -1.2134 C   0  0  0  0  0  0  0  0  0  0  0  0
   -4.1771    0.5130   -0.8823 C   0  0  0  0  0  0  0  0  0  0  0  0
  1  2  1  0
  2  3  1  0
  3  4  4  0
  4  5  1  0
  4  6  4  0
  6  7  1  0
  7  8  4  0
  8  9  4  0
  9 10  4  0
 10 11  1  0
 11 12  1  0
 12 13  4  0
 13 14  4  0
 14 15  4  0
 15 16  4  0
 16 17  4  0
 10 18  4  0
 18 19  4  0
  6 20  4  0
 20 21  4  0
 21 22  4  0
 22 23  4  0
 23 24  4  0
 24 25  4  0
 25 26  4  0
 17 12  4  0
 19  7  4  0
 26  3  4  0
 26 21  4  0
M  END
>  <SMILES>  (1) 
COc3c(C)c(c2ccc(Cc1ccccc1)cc2)nc4ccccc34

>  <NumConformers>  (1) 
8

>  <EnergyUnits>  (1) 
RDKit_forcefield

>  <Processing_Time>  (1) 
30.9s

>  <Original_Conformers>  (1) 
500

>  <Total_Conformers>  (1) 
8

>  <Energy>  (1) 
67.185715418235972

>  <Energy_Unit>  (1) 
RDKit_forcefield

>  <Rank>  (1) 
1

>  <Conformer_Index>  (1) 
0

$$$$
CK-3-23
     RDKit          3D

 26 29  0  0  0  0  0  0  0  0999 V2000
   -4.2637   -1.9693   -2.6242 C   0  0  0  0  0  0  0  0  0  0  0  0
   -4.0716   -1.8505   -1.2205 O   0  0  0  0  0  0  0  0  0  0  0  0
   -3.4665   -0.7203   -0.6617 C   0  0  0  0  0  0  0  0  0  0  0  0
   -2.0594   -0.6238   -0.5980 C   0  0  0  0  0  0  0  0  0  0  0  0
   -1.2059   -1.7760   -1.0722 C   0  0  0  0  0  0  0  0  0  0  0  0
   -1.4806    0.5610   -0.0776 C   0  0  0  0  0  0  0  0  0  0  0  0
   -0.0194    0.7808   -0.0333 C   0  0  0  0  0  0  0  0  0  0  0  0
    0.5982    1.1188    1.1803 C   0  0  0  0  0  0  0  0  0  0  0  0
    1.9762    1.3473    1.2319 C   0  0  0  0  0  0  0  0  0  0  0  0
    2.7524    1.2639    0.0654 C   0  0  0  0  0  0  0  0  0  0  0  0
    4.2417    1.4673    0.1283 C   0  0  0  0  0  0  0  0  0  0  0  0
    4.9331    0.1582    0.3958 C   0  0  0  0  0  0  0  0  0  0  0  0
    5.1551   -0.2697    1.7156 C   0  0  0  0  0  0  0  0  0  0  0  0
    5.7643   -1.5039    1.9627 C   0  0  0  0  0  0  0  0  0  0  0  0
    6.1473   -2.3221    0.8963 C   0  0  0  0  0  0  0  0  0  0  0  0
    5.9186   -1.9090   -0.4191 C   0  0  0  0  0  0  0  0  0  0  0  0
    5.3098   -0.6756   -0.6707 C   0  0  0  0  0  0  0  0  0  0  0  0
    2.1332    0.9364   -1.1509 C   0  0  0  0  0  0  0  0  0  0  0  0
    0.7555    0.7077   -1.2022 C   0  0  0  0  0  0  0  0  0  0  0  0
   -2.2835    1.5407    0.4172 N   0  0  0  0  0  0  0  0  0  0  0  0
   -3.6370    1.4522    0.4057 C   0  0  0  0  0  0  0  0  0  0  0  0
   -4.4076    2.4961    0.9307 C   0  0  0  0  0  0  0  0  0  0  0  0
   -5.8023    2.4152    0.9116 C   0  0  0  0  0  0  0  0  0  0  0  0
   -6.4320    1.2927    0.3677 C   0  0  0  0  0  0  0  0  0  0  0  0
   -5.6706    0.2448   -0.1592 C   0  0  0  0  0  0  0  0  0  0  0  0
   -4.2651    0.3151   -0.1446 C   0  0  0  0  0  0  0  0  0  0  0  0
  1  2  1  0
  2  3  1  0
  3  4  4  0
  4  5  1  0
  4  6  4  0
  6  7  1  0
  7  8  4  0
  8  9  4  0
  9 10  4  0
 10 11  1  0
 11 12  1  0
 12 13  4  0
 13 14  4  0
 14 15  4  0
 15 16  4  0
 16 17  4  0
 10 18  4  0
 18 19  4  0
  6 20  4  0
 20 21  4  0
 21 22  4  0
 22 23  4  0
 23 24  4  0
 24 25  4  0
 25 26  4  0
 17 12  4  0
 19  7  4  0
 26  3  4  0
 26 21  4  0
M  END
>  <SMILES>  (2) 
COc3c(C)c(c2ccc(Cc1ccccc1)cc2)nc4ccccc34

>  <NumConformers>  (2) 
8

>  <EnergyUnits>  (2) 
RDKit_forcefield

>  <Processing_Time>  (2) 
30.9s

>  <Original_Conformers>  (2) 
500

>  <Total_Conformers>  (2) 
8

>  <Energy>  (2) 
67.185715419675446

>  <Energy_Unit>  (2) 
RDKit_forcefield

>  <Rank>  (2) 
2

>  <Conformer_Index>  (2) 
1

$$$$
CK-3-23
     RDKit          3D

 26 29  0  0  0  0  0  0  0  0999 V2000
   -4.7479   -1.1527   -3.0518 C   0  0  0  0  0  0  0  0  0  0  0  0
   -4.4903    0.1298   -2.4948 O   0  0  0  0  0  0  0  0  0  0  0  0
   -3.6337    0.2895   -1.4010 C   0  0  0  0  0  0  0  0  0  0  0  0
   -2.2388    0.3851   -1.5967 C   0  0  0  0  0  0  0  0  0  0  0  0
   -1.6761    0.3839   -2.9981 C   0  0  0  0  0  0  0  0  0  0  0  0
   -1.3969    0.4886   -0.4608 C   0  0  0  0  0  0  0  0  0  0  0  0
    0.0777    0.5247   -0.5622 C   0  0  0  0  0  0  0  0  0  0  0  0
    0.7935    1.5647    0.0500 C   0  0  0  0  0  0  0  0  0  0  0  0
    2.1893    1.5960   -0.0159 C   0  0  0  0  0  0  0  0  0  0  0  0
    2.8897    0.5839   -0.6907 C   0  0  0  0  0  0  0  0  0  0  0  0
    4.3937    0.5960   -0.7265 C   0  0  0  0  0  0  0  0  0  0  0  0
    4.9480   -0.1332    0.4670 C   0  0  0  0  0  0  0  0  0  0  0  0
    5.1882    0.5537    1.6690 C   0  0  0  0  0  0  0  0  0  0  0  0
    5.6692   -0.1327    2.7883 C   0  0  0  0  0  0  0  0  0  0  0  0
    5.9050   -1.5085    2.7186 C   0  0  0  0  0  0  0  0  0  0  0  0
    5.6570   -2.2010    1.5302 C   0  0  0  0  0  0  0  0  0  0  0  0
    5.1760   -1.5185    0.4085 C   0  0  0  0  0  0  0  0  0  0  0  0
    2.1760   -0.4743   -1.2744 C   0  0  0  0  0  0  0  0  0  0  0  0
    0.7803   -0.5053   -1.2085 C   0  0  0  0  0  0  0  0  0  0  0  0
   -1.9483    0.5711    0.7797 N   0  0  0  0  0  0  0  0  0  0  0  0
   -3.2876    0.5244    0.9892 C   0  0  0  0  0  0  0  0  0  0  0  0
   -3.7921    0.6145    2.2917 C   0  0  0  0  0  0  0  0  0  0  0  0
   -5.1703    0.5560    2.5145 C   0  0  0  0  0  0  0  0  0  0  0  0
   -6.0486    0.4064    1.4382 C   0  0  0  0  0  0  0  0  0  0  0  0
   -5.5539    0.3155    0.1335 C   0  0  0  0  0  0  0  0  0  0  0  0
   -4.1678    0.3740   -0.1029 C   0  0  0  0  0  0  0  0  0  0  0  0
  1  2  1  0
  2  3  1  0
  3  4  4  0
  4  5  1  0
  4  6  4  0
  6  7  1  0
  7  8  4  0
  8  9  4  0
  9 10  4  0
 10 11  1  0
 11 12  1  0
 12 13  4  0
 13 14  4  0
 14 15  4  0
 15 16  4  0
 16 17  4  0
 10 18  4  0
 18 19  4  0
  6 20  4  0
 20 21  4  0
 21 22  4  0
 22 23  4  0
 23 24  4  0
 24 25  4  0
 25 26  4  0
 17 12  4  0
 19  7  4  0
 26  3  4  0
 26 21  4  0
M  END
>  <SMILES>  (3) 
COc3c(C)c(c2ccc(Cc1ccccc1)cc2)nc4ccccc34

>  <NumConformers>  (3) 
8

>  <EnergyUnits>  (3) 
RDKit_forcefield

>  <Processing_Time>  (3) 
30.9s

>  <Original_Conformers>  (3) 
500

>  <Total_Conformers>  (3) 
8

>  <Energy>  (3) 
67.207037662729576

>  <Energy_Unit>  (3) 
RDKit_forcefield

>  <Rank>  (3) 
3

>  <Conformer_Index>  (3) 
2

$$$$
CK-3-23
     RDKit          3D

 26 29  0  0  0  0  0  0  0  0999 V2000
   -4.6499    2.2806   -2.4955 C   0  0  0  0  0  0  0  0  0  0  0  0
   -4.4690    0.8756   -2.3740 O   0  0  0  0  0  0  0  0  0  0  0  0
   -3.6325    0.3315   -1.3942 C   0  0  0  0  0  0  0  0  0  0  0  0
   -2.2433    0.2252   -1.6226 C   0  0  0  0  0  0  0  0  0  0  0  0
   -1.6688    0.6372   -2.9570 C   0  0  0  0  0  0  0  0  0  0  0  0
   -1.4188   -0.2780   -0.5850 C   0  0  0  0  0  0  0  0  0  0  0  0
    0.0524   -0.3622   -0.7059 C   0  0  0  0  0  0  0  0  0  0  0  0
    0.8170    0.7784   -1.0005 C   0  0  0  0  0  0  0  0  0  0  0  0
    2.2093    0.6923   -1.0854 C   0  0  0  0  0  0  0  0  0  0  0  0
    2.8578   -0.5340   -0.8718 C   0  0  0  0  0  0  0  0  0  0  0  0
    4.3591   -0.6178   -0.9232 C   0  0  0  0  0  0  0  0  0  0  0  0
    4.9423   -0.3344    0.4344 C   0  0  0  0  0  0  0  0  0  0  0  0
    5.2474    0.9837    0.8140 C   0  0  0  0  0  0  0  0  0  0  0  0
    5.7555    1.2495    2.0894 C   0  0  0  0  0  0  0  0  0  0  0  0
    5.9539    0.2047    2.9962 C   0  0  0  0  0  0  0  0  0  0  0  0
    5.6413   -1.1074    2.6304 C   0  0  0  0  0  0  0  0  0  0  0  0
    5.1331   -1.3777    1.3560 C   0  0  0  0  0  0  0  0  0  0  0  0
    2.0961   -1.6667   -0.5446 C   0  0  0  0  0  0  0  0  0  0  0  0
    0.7037   -1.5803   -0.4596 C   0  0  0  0  0  0  0  0  0  0  0  0
   -1.9851   -0.7169    0.5710 N   0  0  0  0  0  0  0  0  0  0  0  0
   -3.3215   -0.6644    0.7966 C   0  0  0  0  0  0  0  0  0  0  0  0
   -3.8420   -1.1327    2.0086 C   0  0  0  0  0  0  0  0  0  0  0  0
   -5.2167   -1.0710    2.2509 C   0  0  0  0  0  0  0  0  0  0  0  0
   -6.0757   -0.5409    1.2847 C   0  0  0  0  0  0  0  0  0  0  0  0
   -5.5649   -0.0705    0.0709 C   0  0  0  0  0  0  0  0  0  0  0  0
   -4.1822   -0.1284   -0.1843 C   0  0  0  0  0  0  0  0  0  0  0  0
  1  2  1  0
  2  3  1  0
  3  4  4  0
  4  5  1  0
  4  6  4  0
  6  7  1  0
  7  8  4  0
  8  9  4  0
  9 10  4  0
 10 11  1  0
 11 12  1  0
 12 13  4  0
 13 14  4  0
 14 15  4  0
 15 16  4  0
 16 17  4  0
 10 18  4  0
 18 19  4  0
  6 20  4  0
 20 21  4  0
 21 22  4  0
 22 23  4  0
 23 24  4  0
 24 25  4  0
 25 26  4  0
 17 12  4  0
 19  7  4  0
 26  3  4  0
 26 21  4  0
M  END
>  <SMILES>  (4) 
COc3c(C)c(c2ccc(Cc1ccccc1)cc2)nc4ccccc34

>  <NumConformers>  (4) 
8

>  <EnergyUnits>  (4) 
RDKit_forcefield

>  <Processing_Time>  (4) 
30.9s

>  <Original_Conformers>  (4) 
500

>  <Total_Conformers>  (4) 
8

>  <Energy>  (4) 
67.207037666934227

>  <Energy_Unit>  (4) 
RDKit_forcefield

>  <Rank>  (4) 
4

>  <Conformer_Index>  (4) 
3

$$$$
CK-3-23
     RDKit          3D

 26 29  0  0  0  0  0  0  0  0999 V2000
   -4.0302    0.8661   -3.5256 C   0  0  0  0  0  0  0  0  0  0  0  0
   -3.7516    1.5090   -2.2864 O   0  0  0  0  0  0  0  0  0  0  0  0
   -3.3242    0.7862   -1.1671 C   0  0  0  0  0  0  0  0  0  0  0  0
   -1.9506    0.7414   -0.8434 C   0  0  0  0  0  0  0  0  0  0  0  0
   -0.9506    1.4792   -1.7028 C   0  0  0  0  0  0  0  0  0  0  0  0
   -1.5429    0.0120    0.3017 C   0  0  0  0  0  0  0  0  0  0  0  0
   -0.1340   -0.0561    0.7430 C   0  0  0  0  0  0  0  0  0  0  0  0
    0.5826    1.1128    1.0463 C   0  0  0  0  0  0  0  0  0  0  0  0
    1.9082    1.0346    1.4817 C   0  0  0  0  0  0  0  0  0  0  0  0
    2.5289   -0.2141    1.6420 C   0  0  0  0  0  0  0  0  0  0  0  0
    3.9692   -0.2966    2.0687 C   0  0  0  0  0  0  0  0  0  0  0  0
    4.8697   -0.2639    0.8640 C   0  0  0  0  0  0  0  0  0  0  0  0
    5.2221   -1.4564    0.2097 C   0  0  0  0  0  0  0  0  0  0  0  0
    6.0287   -1.4213   -0.9321 C   0  0  0  0  0  0  0  0  0  0  0  0
    6.4810   -0.1974   -1.4330 C   0  0  0  0  0  0  0  0  0  0  0  0
    6.1246    0.9938   -0.7949 C   0  0  0  0  0  0  0  0  0  0  0  0
    5.3182    0.9633    0.3471 C   0  0  0  0  0  0  0  0  0  0  0  0
    1.8090   -1.3829    1.3488 C   0  0  0  0  0  0  0  0  0  0  0  0
    0.4830   -1.3043    0.9137 C   0  0  0  0  0  0  0  0  0  0  0  0
   -2.4669   -0.6672    1.0316 N   0  0  0  0  0  0  0  0  0  0  0  0
   -3.7910   -0.6426    0.7402 C   0  0  0  0  0  0  0  0  0  0  0  0
   -4.6928   -1.3455    1.5477 C   0  0  0  0  0  0  0  0  0  0  0  0
   -6.0622   -1.2947    1.2769 C   0  0  0  0  0  0  0  0  0  0  0  0
   -6.5362   -0.5360    0.2042 C   0  0  0  0  0  0  0  0  0  0  0  0
   -5.6429    0.1667   -0.6102 C   0  0  0  0  0  0  0  0  0  0  0  0
   -4.2586    0.1082   -0.3596 C   0  0  0  0  0  0  0  0  0  0  0  0
  1  2  1  0
  2  3  1  0
  3  4  4  0
  4  5  1  0
  4  6  4  0
  6  7  1  0
  7  8  4  0
  8  9  4  0
  9 10  4  0
 10 11  1  0
 11 12  1  0
 12 13  4  0
 13 14  4  0
 14 15  4  0
 15 16  4  0
 16 17  4  0
 10 18  4  0
 18 19  4  0
  6 20  4  0
 20 21  4  0
 21 22  4  0
 22 23  4  0
 23 24  4  0
 24 25  4  0
 25 26  4  0
 17 12  4  0
 19  7  4  0
 26  3  4  0
 26 21  4  0
M  END
>  <SMILES>  (5) 
COc3c(C)c(c2ccc(Cc1ccccc1)cc2)nc4ccccc34

>  <NumConformers>  (5) 
8

>  <EnergyUnits>  (5) 
RDKit_forcefield

>  <Processing_Time>  (5) 
30.9s

>  <Original_Conformers>  (5) 
500

>  <Total_Conformers>  (5) 
8

>  <Energy>  (5) 
67.785782072873985

>  <Energy_Unit>  (5) 
RDKit_forcefield

>  <Rank>  (5) 
5

>  <Conformer_Index>  (5) 
4

$$$$
CK-3-23
     RDKit          3D

 26 29  0  0  0  0  0  0  0  0999 V2000
   -4.0311    0.9639   -3.4981 C   0  0  0  0  0  0  0  0  0  0  0  0
   -3.7355   -0.2253   -2.7735 O   0  0  0  0  0  0  0  0  0  0  0  0
   -3.3152   -0.1838   -1.4396 C   0  0  0  0  0  0  0  0  0  0  0  0
   -1.9410   -0.2904   -1.1332 C   0  0  0  0  0  0  0  0  0  0  0  0
   -0.9326   -0.4554   -2.2463 C   0  0  0  0  0  0  0  0  0  0  0  0
   -1.5404   -0.2570    0.2261 C   0  0  0  0  0  0  0  0  0  0  0  0
   -0.1308   -0.4044    0.6452 C   0  0  0  0  0  0  0  0  0  0  0  0
    0.4655    0.5828    1.4438 C   0  0  0  0  0  0  0  0  0  0  0  0
    1.7920    0.4462    1.8626 C   0  0  0  0  0  0  0  0  0  0  0  0
    2.5334   -0.6917    1.5078 C   0  0  0  0  0  0  0  0  0  0  0  0
    3.9741   -0.8187    1.9220 C   0  0  0  0  0  0  0  0  0  0  0  0
    4.8692   -0.2037    0.8809 C   0  0  0  0  0  0  0  0  0  0  0  0
    5.1978    1.1609    0.9449 C   0  0  0  0  0  0  0  0  0  0  0  0
    5.9994    1.7393   -0.0442 C   0  0  0  0  0  0  0  0  0  0  0  0
    6.4702    0.9633   -1.1069 C   0  0  0  0  0  0  0  0  0  0  0  0
    6.1375   -0.3919   -1.1842 C   0  0  0  0  0  0  0  0  0  0  0  0
    5.3362   -0.9744   -0.1972 C   0  0  0  0  0  0  0  0  0  0  0  0
    1.9335   -1.6848    0.7179 C   0  0  0  0  0  0  0  0  0  0  0  0
    0.6073   -1.5477    0.2990 C   0  0  0  0  0  0  0  0  0  0  0  0
   -2.4724   -0.0732    1.1985 N   0  0  0  0  0  0  0  0  0  0  0  0
   -3.7973    0.0347    0.9304 C   0  0  0  0  0  0  0  0  0  0  0  0
   -4.7071    0.1987    1.9814 C   0  0  0  0  0  0  0  0  0  0  0  0
   -6.0767    0.2727    1.7172 C   0  0  0  0  0  0  0  0  0  0  0  0
   -6.5429    0.1755    0.4040 C   0  0  0  0  0  0  0  0  0  0  0  0
   -5.6415    0.0151   -0.6528 C   0  0  0  0  0  0  0  0  0  0  0  0
   -4.2572   -0.0416   -0.4016 C   0  0  0  0  0  0  0  0  0  0  0  0
  1  2  1  0
  2  3  1  0
  3  4  4  0
  4  5  1  0
  4  6  4  0
  6  7  1  0
  7  8  4  0
  8  9  4  0
  9 10  4  0
 10 11  1  0
 11 12  1  0
 12 13  4  0
 13 14  4  0
 14 15  4  0
 15 16  4  0
 16 17  4  0
 10 18  4  0
 18 19  4  0
  6 20  4  0
 20 21  4  0
 21 22  4  0
 22 23  4  0
 23 24  4  0
 24 25  4  0
 25 26  4  0
 17 12  4  0
 19  7  4  0
 26  3  4  0
 26 21  4  0
M  END
>  <SMILES>  (6) 
COc3c(C)c(c2ccc(Cc1ccccc1)cc2)nc4ccccc34

>  <NumConformers>  (6) 
8

>  <EnergyUnits>  (6) 
RDKit_forcefield

>  <Processing_Time>  (6) 
30.9s

>  <Original_Conformers>  (6) 
500

>  <Total_Conformers>  (6) 
8

>  <Energy>  (6) 
67.785782073397357

>  <Energy_Unit>  (6) 
RDKit_forcefield

>  <Rank>  (6) 
6

>  <Conformer_Index>  (6) 
5

$$$$
CK-3-23
     RDKit          3D

 26 29  0  0  0  0  0  0  0  0999 V2000
   -5.1575   -0.2355   -3.1853 C   0  0  0  0  0  0  0  0  0  0  0  0
   -4.3703    0.7611   -2.5420 O   0  0  0  0  0  0  0  0  0  0  0  0
   -3.5576    0.4558   -1.4447 C   0  0  0  0  0  0  0  0  0  0  0  0
   -2.1745    0.2434   -1.6335 C   0  0  0  0  0  0  0  0  0  0  0  0
   -1.5787    0.3534   -3.0176 C   0  0  0  0  0  0  0  0  0  0  0  0
   -1.3694   -0.0536   -0.5052 C   0  0  0  0  0  0  0  0  0  0  0  0
    0.0931   -0.2477   -0.5980 C   0  0  0  0  0  0  0  0  0  0  0  0
    0.6723   -1.4258   -0.1032 C   0  0  0  0  0  0  0  0  0  0  0  0
    2.0567   -1.6101   -0.1602 C   0  0  0  0  0  0  0  0  0  0  0  0
    2.8820   -0.6156   -0.7079 C   0  0  0  0  0  0  0  0  0  0  0  0
    4.3753   -0.7968   -0.7319 C   0  0  0  0  0  0  0  0  0  0  0  0
    4.9827   -0.2763    0.5424 C   0  0  0  0  0  0  0  0  0  0  0  0
    5.1171   -1.1181    1.6593 C   0  0  0  0  0  0  0  0  0  0  0  0
    5.6483   -0.6230    2.8544 C   0  0  0  0  0  0  0  0  0  0  0  0
    6.0401    0.7154    2.9455 C   0  0  0  0  0  0  0  0  0  0  0  0
    5.8983    1.5621    1.8426 C   0  0  0  0  0  0  0  0  0  0  0  0
    5.3675    1.0712    0.6457 C   0  0  0  0  0  0  0  0  0  0  0  0
    2.3059    0.5771   -1.1724 C   0  0  0  0  0  0  0  0  0  0  0  0
    0.9216    0.7611   -1.1154 C   0  0  0  0  0  0  0  0  0  0  0  0
   -1.9463   -0.1777    0.7195 N   0  0  0  0  0  0  0  0  0  0  0  0
   -3.2719    0.0183    0.9268 C   0  0  0  0  0  0  0  0  0  0  0  0
   -3.7979   -0.1018    2.2184 C   0  0  0  0  0  0  0  0  0  0  0  0
   -5.1553    0.1357    2.4469 C   0  0  0  0  0  0  0  0  0  0  0  0
   -5.9901    0.5013    1.3883 C   0  0  0  0  0  0  0  0  0  0  0  0
   -5.4746    0.6205    0.0941 C   0  0  0  0  0  0  0  0  0  0  0  0
   -4.1122    0.3650   -0.1528 C   0  0  0  0  0  0  0  0  0  0  0  0
  1  2  1  0
  2  3  1  0
  3  4  4  0
  4  5  1  0
  4  6  4  0
  6  7  1  0
  7  8  4  0
  8  9  4  0
  9 10  4  0
 10 11  1  0
 11 12  1  0
 12 13  4  0
 13 14  4  0
 14 15  4  0
 15 16  4  0
 16 17  4  0
 10 18  4  0
 18 19  4  0
  6 20  4  0
 20 21  4  0
 21 22  4  0
 22 23  4  0
 23 24  4  0
 24 25  4  0
 25 26  4  0
 17 12  4  0
 19  7  4  0
 26  3  4  0
 26 21  4  0
M  END
>  <SMILES>  (7) 
COc3c(C)c(c2ccc(Cc1ccccc1)cc2)nc4ccccc34

>  <NumConformers>  (7) 
8

>  <EnergyUnits>  (7) 
RDKit_forcefield

>  <Processing_Time>  (7) 
30.9s

>  <Original_Conformers>  (7) 
500

>  <Total_Conformers>  (7) 
8

>  <Energy>  (7) 
67.808882182573356

>  <Energy_Unit>  (7) 
RDKit_forcefield

>  <Rank>  (7) 
7

>  <Conformer_Index>  (7) 
6

$$$$
CK-3-23
     RDKit          3D

 26 29  0  0  0  0  0  0  0  0999 V2000
   -5.1635   -0.3515   -3.1639 C   0  0  0  0  0  0  0  0  0  0  0  0
   -4.4688   -1.1281   -2.1939 O   0  0  0  0  0  0  0  0  0  0  0  0
   -3.6093   -0.5361   -1.2619 C   0  0  0  0  0  0  0  0  0  0  0  0
   -2.2156   -0.5450   -1.4882 C   0  0  0  0  0  0  0  0  0  0  0  0
   -1.6597   -1.1992   -2.7316 C   0  0  0  0  0  0  0  0  0  0  0  0
   -1.3639    0.0510   -0.5244 C   0  0  0  0  0  0  0  0  0  0  0  0
    0.1087    0.0513   -0.6531 C   0  0  0  0  0  0  0  0  0  0  0  0
    0.8126    1.2637   -0.5987 C   0  0  0  0  0  0  0  0  0  0  0  0
    2.2071    1.2754   -0.6918 C   0  0  0  0  0  0  0  0  0  0  0  0
    2.9179    0.0735   -0.8349 C   0  0  0  0  0  0  0  0  0  0  0  0
    4.4212    0.0831   -0.8940 C   0  0  0  0  0  0  0  0  0  0  0  0
    4.9966   -0.0087    0.4931 C   0  0  0  0  0  0  0  0  0  0  0  0
    5.2458   -1.2628    1.0757 C   0  0  0  0  0  0  0  0  0  0  0  0
    5.7466   -1.3469    2.3786 C   0  0  0  0  0  0  0  0  0  0  0  0
    5.9933   -0.1824    3.1109 C   0  0  0  0  0  0  0  0  0  0  0  0
    5.7365    1.0684    2.5427 C   0  0  0  0  0  0  0  0  0  0  0  0
    5.2358    1.1571    1.2401 C   0  0  0  0  0  0  0  0  0  0  0  0
    2.2163   -1.1420   -0.8556 C   0  0  0  0  0  0  0  0  0  0  0  0
    0.8218   -1.1534   -0.7626 C   0  0  0  0  0  0  0  0  0  0  0  0
   -1.9026    0.6598    0.5652 N   0  0  0  0  0  0  0  0  0  0  0  0
   -3.2372    0.6847    0.8040 C   0  0  0  0  0  0  0  0  0  0  0  0
   -3.7244    1.3083    1.9586 C   0  0  0  0  0  0  0  0  0  0  0  0
   -5.0943    1.3054    2.2313 C   0  0  0  0  0  0  0  0  0  0  0  0
   -5.9812    0.6733    1.3567 C   0  0  0  0  0  0  0  0  0  0  0  0
   -5.5044    0.0507    0.1990 C   0  0  0  0  0  0  0  0  0  0  0  0
   -4.1279    0.0633   -0.0972 C   0  0  0  0  0  0  0  0  0  0  0  0
  1  2  1  0
  2  3  1  0
  3  4  4  0
  4  5  1  0
  4  6  4  0
  6  7  1  0
  7  8  4  0
  8  9  4  0
  9 10  4  0
 10 11  1  0
 11 12  1  0
 12 13  4  0
 13 14  4  0
 14 15  4  0
 15 16  4  0
 16 17  4  0
 10 18  4  0
 18 19  4  0
  6 20  4  0
 20 21  4  0
 21 22  4  0
 22 23  4  0
 23 24  4  0
 24 25  4  0
 25 26  4  0
 17 12  4  0
 19  7  4  0
 26  3  4  0
 26 21  4  0
M  END
>  <SMILES>  (8) 
COc3c(C)c(c2ccc(Cc1ccccc1)cc2)nc4ccccc34

>  <NumConformers>  (8) 
8

>  <EnergyUnits>  (8) 
RDKit_forcefield

>  <Processing_Time>  (8) 
30.9s

>  <Original_Conformers>  (8) 
500

>  <Total_Conformers>  (8) 
8

>  <Energy>  (8) 
67.808882183467418

>  <Energy_Unit>  (8) 
RDKit_forcefield

>  <Rank>  (8) 
8

>  <Conformer_Index>  (8) 
7

$$$$
