CK-3-22 (1T)
     RDKit          3D

 30 33  0  0  0  0  0  0  0  0999 V2000
   -1.3959   -2.7797    0.3875 C   0  0  0  0  0  0  0  0  0  0  0  0
   -2.5699   -1.9306   -0.0462 C   0  0  0  0  0  0  0  0  0  0  0  0
   -2.3808   -0.6629   -0.6509 C   0  0  0  0  0  0  0  0  0  0  0  0
   -1.0303   -0.0866   -0.8472 C   0  0  0  0  0  0  0  0  0  0  0  0
   -0.5949    0.2723   -2.1296 C   0  0  0  0  0  0  0  0  0  0  0  0
    0.6716    0.8320   -2.3063 C   0  0  0  0  0  0  0  0  0  0  0  0
    1.4964    1.0341   -1.1967 C   0  0  0  0  0  0  0  0  0  0  0  0
    2.7590    1.6127   -1.3795 O   0  0  0  0  0  0  0  0  0  0  0  0
    3.8063    1.5817   -0.4471 C   0  0  0  0  0  0  0  0  0  0  0  0
    4.7128    2.6467   -0.4241 C   0  0  0  0  0  0  0  0  0  0  0  0
    5.7770    2.6526    0.4821 C   0  0  0  0  0  0  0  0  0  0  0  0
    5.9615    1.5873    1.3710 C   0  0  0  0  0  0  0  0  0  0  0  0
    7.0460    1.6467    2.2611 O   0  0  0  0  0  0  0  0  0  0  0  0
    7.3752    0.6499    3.2262 C   0  0  0  0  0  0  0  0  0  0  0  0
    7.6484   -0.5513    2.5968 F   0  0  0  0  0  0  0  0  0  0  0  0
    8.4983    1.0534    3.9220 F   0  0  0  0  0  0  0  0  0  0  0  0
    6.3315    0.4879    4.1196 F   0  0  0  0  0  0  0  0  0  0  0  0
    5.0628    0.5035    1.3359 C   0  0  0  0  0  0  0  0  0  0  0  0
    3.9978    0.4990    0.4297 C   0  0  0  0  0  0  0  0  0  0  0  0
    1.0447    0.7054    0.0462 N   0  0  0  0  0  0  0  0  0  0  0  0
   -0.1835    0.1577    0.2441 C   0  0  0  0  0  0  0  0  0  0  0  0
   -3.4611    0.0556   -1.0740 N   0  0  0  0  0  0  0  0  0  0  0  0
   -4.7386   -0.3841   -0.8990 C   0  0  0  0  0  0  0  0  0  0  0  0
   -5.8215    0.3941   -1.3410 C   0  0  0  0  0  0  0  0  0  0  0  0
   -7.1321   -0.0499   -1.1524 C   0  0  0  0  0  0  0  0  0  0  0  0
   -7.3742   -1.2711   -0.5212 C   0  0  0  0  0  0  0  0  0  0  0  0
   -6.3073   -2.0558   -0.0763 C   0  0  0  0  0  0  0  0  0  0  0  0
   -4.9797   -1.6215   -0.2614 C   0  0  0  0  0  0  0  0  0  0  0  0
   -3.8844   -2.3902    0.1696 C   0  0  0  0  0  0  0  0  0  0  0  0
   -4.0785   -3.4956    0.7487 O   0  0  0  0  0  0  0  0  0  0  0  0
  1  2  1  0
  2  3  4  0
  3  4  1  0
  4  5  4  0
  5  6  4  0
  6  7  4  0
  7  8  1  0
  8  9  1  0
  9 10  4  0
 10 11  4  0
 11 12  4  0
 12 13  1  0
 13 14  1  0
 14 15  1  0
 14 16  1  0
 14 17  1  0
 12 18  4  0
 18 19  4  0
  7 20  4  0
 20 21  4  0
  3 22  4  0
 22 23  4  0
 23 24  4  0
 24 25  4  0
 25 26  4  0
 26 27  4  0
 27 28  4  0
 28 29  4  0
 29 30  2  0
 19  9  4  0
 21  4  4  0
 28 23  4  0
 29  2  4  0
M  END
>  <SMILES>  (1) 
Cc4c(c2ccc(Oc1ccc(OC(F)(F)F)cc1)nc2)[nH]c3ccccc3c4=O

>  <NumConformers>  (1) 
32

>  <EnergyUnits>  (1) 
RDKit_forcefield

>  <Processing_Time>  (1) 
33.7s

>  <Original_Conformers>  (1) 
500

>  <Total_Conformers>  (1) 
32

>  <Energy>  (1) 
68.779665627591271

>  <Energy_Unit>  (1) 
RDKit_forcefield

>  <Rank>  (1) 
1

>  <Conformer_Index>  (1) 
0

$$$$
CK-3-22 (1T)
     RDKit          3D

 30 33  0  0  0  0  0  0  0  0999 V2000
   -1.9575   -1.4811    1.9158 C   0  0  0  0  0  0  0  0  0  0  0  0
   -2.8468   -1.2901    0.7076 C   0  0  0  0  0  0  0  0  0  0  0  0
   -2.4983   -0.3911   -0.3310 C   0  0  0  0  0  0  0  0  0  0  0  0
   -1.2281    0.3708   -0.3089 C   0  0  0  0  0  0  0  0  0  0  0  0
   -1.2428    1.7706   -0.3661 C   0  0  0  0  0  0  0  0  0  0  0  0
   -0.0423    2.4828   -0.3634 C   0  0  0  0  0  0  0  0  0  0  0  0
    1.1696    1.7896   -0.3076 C   0  0  0  0  0  0  0  0  0  0  0  0
    2.3708    2.5102   -0.3232 O   0  0  0  0  0  0  0  0  0  0  0  0
    3.6244    2.0023    0.0479 C   0  0  0  0  0  0  0  0  0  0  0  0
    4.7664    2.5229   -0.5698 C   0  0  0  0  0  0  0  0  0  0  0  0
    6.0363    2.0528   -0.2238 C   0  0  0  0  0  0  0  0  0  0  0  0
    6.1876    1.0644    0.7556 C   0  0  0  0  0  0  0  0  0  0  0  0
    7.4867    0.6278    1.0619 O   0  0  0  0  0  0  0  0  0  0  0  0
    7.8148   -0.3665    2.0300 C   0  0  0  0  0  0  0  0  0  0  0  0
    9.1855   -0.5358    2.0517 F   0  0  0  0  0  0  0  0  0  0  0  0
    7.2219   -1.5710    1.6964 F   0  0  0  0  0  0  0  0  0  0  0  0
    7.3952    0.0342    3.2859 F   0  0  0  0  0  0  0  0  0  0  0  0
    5.0413    0.5533    1.3944 C   0  0  0  0  0  0  0  0  0  0  0  0
    3.7710    1.0234    1.0469 C   0  0  0  0  0  0  0  0  0  0  0  0
    1.1650    0.4273   -0.2813 N   0  0  0  0  0  0  0  0  0  0  0  0
    0.0096   -0.2887   -0.2814 C   0  0  0  0  0  0  0  0  0  0  0  0
   -3.3474   -0.2074   -1.3836 N   0  0  0  0  0  0  0  0  0  0  0  0
   -4.5177   -0.8949   -1.5002 C   0  0  0  0  0  0  0  0  0  0  0  0
   -5.3563   -0.6815   -2.6069 C   0  0  0  0  0  0  0  0  0  0  0  0
   -6.5510   -1.3936   -2.7338 C   0  0  0  0  0  0  0  0  0  0  0  0
   -6.9187   -2.3243   -1.7608 C   0  0  0  0  0  0  0  0  0  0  0  0
   -6.0947   -2.5472   -0.6546 C   0  0  0  0  0  0  0  0  0  0  0  0
   -4.8875   -1.8348   -0.5124 C   0  0  0  0  0  0  0  0  0  0  0  0
   -4.0394   -2.0319    0.5913 C   0  0  0  0  0  0  0  0  0  0  0  0
   -4.3478   -2.8730    1.4814 O   0  0  0  0  0  0  0  0  0  0  0  0
  1  2  1  0
  2  3  4  0
  3  4  1  0
  4  5  4  0
  5  6  4  0
  6  7  4  0
  7  8  1  0
  8  9  1  0
  9 10  4  0
 10 11  4  0
 11 12  4  0
 12 13  1  0
 13 14  1  0
 14 15  1  0
 14 16  1  0
 14 17  1  0
 12 18  4  0
 18 19  4  0
  7 20  4  0
 20 21  4  0
  3 22  4  0
 22 23  4  0
 23 24  4  0
 24 25  4  0
 25 26  4  0
 26 27  4  0
 27 28  4  0
 28 29  4  0
 29 30  2  0
 19  9  4  0
 21  4  4  0
 28 23  4  0
 29  2  4  0
M  END
>  <SMILES>  (2) 
Cc4c(c2ccc(Oc1ccc(OC(F)(F)F)cc1)nc2)[nH]c3ccccc3c4=O

>  <NumConformers>  (2) 
32

>  <EnergyUnits>  (2) 
RDKit_forcefield

>  <Processing_Time>  (2) 
33.7s

>  <Original_Conformers>  (2) 
500

>  <Total_Conformers>  (2) 
32

>  <Energy>  (2) 
68.77966562949095

>  <Energy_Unit>  (2) 
RDKit_forcefield

>  <Rank>  (2) 
2

>  <Conformer_Index>  (2) 
1

$$$$
CK-3-22 (1T)
     RDKit          3D

 30 33  0  0  0  0  0  0  0  0999 V2000
   -3.0691   -0.1725    2.3805 C   0  0  0  0  0  0  0  0  0  0  0  0
   -3.4165   -0.5821    0.9667 C   0  0  0  0  0  0  0  0  0  0  0  0
   -2.5532   -0.2922   -0.1191 C   0  0  0  0  0  0  0  0  0  0  0  0
   -1.2931    0.4641    0.0672 C   0  0  0  0  0  0  0  0  0  0  0  0
   -1.3028    1.7681    0.5823 C   0  0  0  0  0  0  0  0  0  0  0  0
   -0.1051    2.4694    0.7305 C   0  0  0  0  0  0  0  0  0  0  0  0
    1.0980    1.8640    0.3589 C   0  0  0  0  0  0  0  0  0  0  0  0
    2.2939    2.5813    0.4921 O   0  0  0  0  0  0  0  0  0  0  0  0
    3.5800    2.0219    0.4737 C   0  0  0  0  0  0  0  0  0  0  0  0
    4.6387    2.7954   -0.0138 C   0  0  0  0  0  0  0  0  0  0  0  0
    5.9382    2.2816   -0.0416 C   0  0  0  0  0  0  0  0  0  0  0  0
    6.2042    0.9912    0.4305 C   0  0  0  0  0  0  0  0  0  0  0  0
    7.5278    0.5251    0.3767 O   0  0  0  0  0  0  0  0  0  0  0  0
    7.9676   -0.7586    0.8151 C   0  0  0  0  0  0  0  0  0  0  0  0
    9.3285   -0.8628    0.6022 F   0  0  0  0  0  0  0  0  0  0  0  0
    7.7147   -0.9134    2.1663 F   0  0  0  0  0  0  0  0  0  0  0  0
    7.3267   -1.7529    0.0980 F   0  0  0  0  0  0  0  0  0  0  0  0
    5.1440    0.2176    0.9415 C   0  0  0  0  0  0  0  0  0  0  0  0
    3.8439    0.7321    0.9680 C   0  0  0  0  0  0  0  0  0  0  0  0
    1.0848    0.6060   -0.1646 N   0  0  0  0  0  0  0  0  0  0  0  0
   -0.0683   -0.0975   -0.3186 C   0  0  0  0  0  0  0  0  0  0  0  0
   -2.8748   -0.7187   -1.3750 N   0  0  0  0  0  0  0  0  0  0  0  0
   -4.0314   -1.3879   -1.6399 C   0  0  0  0  0  0  0  0  0  0  0  0
   -4.3267   -1.7990   -2.9505 C   0  0  0  0  0  0  0  0  0  0  0  0
   -5.5172   -2.4752   -3.2259 C   0  0  0  0  0  0  0  0  0  0  0  0
   -6.4230   -2.7459   -2.1990 C   0  0  0  0  0  0  0  0  0  0  0  0
   -6.1429   -2.3431   -0.8907 C   0  0  0  0  0  0  0  0  0  0  0  0
   -4.9450   -1.6616   -0.5977 C   0  0  0  0  0  0  0  0  0  0  0  0
   -4.6313   -1.2482    0.7088 C   0  0  0  0  0  0  0  0  0  0  0  0
   -5.4379   -1.4762    1.6533 O   0  0  0  0  0  0  0  0  0  0  0  0
  1  2  1  0
  2  3  4  0
  3  4  1  0
  4  5  4  0
  5  6  4  0
  6  7  4  0
  7  8  1  0
  8  9  1  0
  9 10  4  0
 10 11  4  0
 11 12  4  0
 12 13  1  0
 13 14  1  0
 14 15  1  0
 14 16  1  0
 14 17  1  0
 12 18  4  0
 18 19  4  0
  7 20  4  0
 20 21  4  0
  3 22  4  0
 22 23  4  0
 23 24  4  0
 24 25  4  0
 25 26  4  0
 26 27  4  0
 27 28  4  0
 28 29  4  0
 29 30  2  0
 19  9  4  0
 21  4  4  0
 28 23  4  0
 29  2  4  0
M  END
>  <SMILES>  (3) 
Cc4c(c2ccc(Oc1ccc(OC(F)(F)F)cc1)nc2)[nH]c3ccccc3c4=O

>  <NumConformers>  (3) 
32

>  <EnergyUnits>  (3) 
RDKit_forcefield

>  <Processing_Time>  (3) 
33.7s

>  <Original_Conformers>  (3) 
500

>  <Total_Conformers>  (3) 
32

>  <Energy>  (3) 
68.788130548909663

>  <Energy_Unit>  (3) 
RDKit_forcefield

>  <Rank>  (3) 
3

>  <Conformer_Index>  (3) 
2

$$$$
CK-3-22 (1T)
     RDKit          3D

 30 33  0  0  0  0  0  0  0  0999 V2000
   -3.2370    2.0103    0.6154 C   0  0  0  0  0  0  0  0  0  0  0  0
   -3.5139    0.6846   -0.0575 C   0  0  0  0  0  0  0  0  0  0  0  0
   -2.5485   -0.3528   -0.0700 C   0  0  0  0  0  0  0  0  0  0  0  0
   -1.2413   -0.2095    0.6119 C   0  0  0  0  0  0  0  0  0  0  0  0
   -1.1687    0.0242    1.9925 C   0  0  0  0  0  0  0  0  0  0  0  0
    0.0744    0.1358    2.6175 C   0  0  0  0  0  0  0  0  0  0  0  0
    1.2407    0.0093    1.8585 C   0  0  0  0  0  0  0  0  0  0  0  0
    2.4846    0.1029    2.4961 O   0  0  0  0  0  0  0  0  0  0  0  0
    3.7110    0.3188    1.8508 C   0  0  0  0  0  0  0  0  0  0  0  0
    4.8703   -0.2166    2.4218 C   0  0  0  0  0  0  0  0  0  0  0  0
    6.1150   -0.0179    1.8179 C   0  0  0  0  0  0  0  0  0  0  0  0
    6.2241    0.7313    0.6407 C   0  0  0  0  0  0  0  0  0  0  0  0
    7.4992    0.8971    0.0759 O   0  0  0  0  0  0  0  0  0  0  0  0
    7.7841    1.6281   -1.1148 C   0  0  0  0  0  0  0  0  0  0  0  0
    7.4173    2.9530   -0.9601 F   0  0  0  0  0  0  0  0  0  0  0  0
    9.1415    1.5681   -1.3635 F   0  0  0  0  0  0  0  0  0  0  0  0
    7.1093    1.0738   -2.1877 F   0  0  0  0  0  0  0  0  0  0  0  0
    5.0615    1.2895    0.0748 C   0  0  0  0  0  0  0  0  0  0  0  0
    3.8164    1.0893    0.6791 C   0  0  0  0  0  0  0  0  0  0  0  0
    1.1501   -0.2441    0.5228 N   0  0  0  0  0  0  0  0  0  0  0  0
   -0.0483   -0.3568   -0.1089 C   0  0  0  0  0  0  0  0  0  0  0  0
   -2.8132   -1.5189   -0.7280 N   0  0  0  0  0  0  0  0  0  0  0  0
   -4.0038   -1.7470   -1.3495 C   0  0  0  0  0  0  0  0  0  0  0  0
   -4.2368   -2.9671   -2.0060 C   0  0  0  0  0  0  0  0  0  0  0  0
   -5.4608   -3.2071   -2.6341 C   0  0  0  0  0  0  0  0  0  0  0  0
   -6.4622   -2.2351   -2.6121 C   0  0  0  0  0  0  0  0  0  0  0  0
   -6.2449   -1.0169   -1.9630 C   0  0  0  0  0  0  0  0  0  0  0  0
   -5.0144   -0.7601   -1.3267 C   0  0  0  0  0  0  0  0  0  0  0  0
   -4.7625    0.4573   -0.6702 C   0  0  0  0  0  0  0  0  0  0  0  0
   -5.6553    1.3495   -0.6315 O   0  0  0  0  0  0  0  0  0  0  0  0
  1  2  1  0
  2  3  4  0
  3  4  1  0
  4  5  4  0
  5  6  4  0
  6  7  4  0
  7  8  1  0
  8  9  1  0
  9 10  4  0
 10 11  4  0
 11 12  4  0
 12 13  1  0
 13 14  1  0
 14 15  1  0
 14 16  1  0
 14 17  1  0
 12 18  4  0
 18 19  4  0
  7 20  4  0
 20 21  4  0
  3 22  4  0
 22 23  4  0
 23 24  4  0
 24 25  4  0
 25 26  4  0
 26 27  4  0
 27 28  4  0
 28 29  4  0
 29 30  2  0
 19  9  4  0
 21  4  4  0
 28 23  4  0
 29  2  4  0
M  END
>  <SMILES>  (4) 
Cc4c(c2ccc(Oc1ccc(OC(F)(F)F)cc1)nc2)[nH]c3ccccc3c4=O

>  <NumConformers>  (4) 
32

>  <EnergyUnits>  (4) 
RDKit_forcefield

>  <Processing_Time>  (4) 
33.7s

>  <Original_Conformers>  (4) 
500

>  <Total_Conformers>  (4) 
32

>  <Energy>  (4) 
68.78813056706484

>  <Energy_Unit>  (4) 
RDKit_forcefield

>  <Rank>  (4) 
4

>  <Conformer_Index>  (4) 
3

$$$$
CK-3-22 (1T)
     RDKit          3D

 30 33  0  0  0  0  0  0  0  0999 V2000
   -2.5699    1.9980   -0.4596 C   0  0  0  0  0  0  0  0  0  0  0  0
   -3.2347    0.6492   -0.6208 C   0  0  0  0  0  0  0  0  0  0  0  0
   -2.5911   -0.5449   -0.2107 C   0  0  0  0  0  0  0  0  0  0  0  0
   -1.2211   -0.5381    0.3528 C   0  0  0  0  0  0  0  0  0  0  0  0
   -0.9784   -1.0691    1.6264 C   0  0  0  0  0  0  0  0  0  0  0  0
    0.3176   -1.0768    2.1450 C   0  0  0  0  0  0  0  0  0  0  0  0
    1.3672   -0.5560    1.3837 C   0  0  0  0  0  0  0  0  0  0  0  0
    2.6678   -0.5834    1.9033 O   0  0  0  0  0  0  0  0  0  0  0  0
    3.7475    0.1723    1.4233 C   0  0  0  0  0  0  0  0  0  0  0  0
    5.0384   -0.3528    1.5460 C   0  0  0  0  0  0  0  0  0  0  0  0
    6.1461    0.3687    1.0908 C   0  0  0  0  0  0  0  0  0  0  0  0
    5.9755    1.6425    0.5148 C   0  0  0  0  0  0  0  0  0  0  0  0
    7.0499    2.4117    0.0394 O   0  0  0  0  0  0  0  0  0  0  0  0
    8.4206    2.0198    0.0697 C   0  0  0  0  0  0  0  0  0  0  0  0
    8.8296    1.8164    1.3755 F   0  0  0  0  0  0  0  0  0  0  0  0
    8.6024    0.8634   -0.6674 F   0  0  0  0  0  0  0  0  0  0  0  0
    9.1868    3.0265   -0.4850 F   0  0  0  0  0  0  0  0  0  0  0  0
    4.6850    2.1747    0.4119 C   0  0  0  0  0  0  0  0  0  0  0  0
    3.5780    1.4523    0.8664 C   0  0  0  0  0  0  0  0  0  0  0  0
    1.1166   -0.0698    0.1357 N   0  0  0  0  0  0  0  0  0  0  0  0
   -0.1365   -0.0498   -0.3907 C   0  0  0  0  0  0  0  0  0  0  0  0
   -3.2396   -1.7402   -0.3264 N   0  0  0  0  0  0  0  0  0  0  0  0
   -4.4859   -1.8400   -0.8673 C   0  0  0  0  0  0  0  0  0  0  0  0
   -5.1114   -3.0931   -0.9766 C   0  0  0  0  0  0  0  0  0  0  0  0
   -6.3844   -3.1988   -1.5412 C   0  0  0  0  0  0  0  0  0  0  0  0
   -7.0433   -2.0580   -2.0023 C   0  0  0  0  0  0  0  0  0  0  0  0
   -6.4336   -0.8049   -1.9003 C   0  0  0  0  0  0  0  0  0  0  0  0
   -5.1504   -0.6829   -1.3313 C   0  0  0  0  0  0  0  0  0  0  0  0
   -4.5124    0.5639   -1.2091 C   0  0  0  0  0  0  0  0  0  0  0  0
   -5.0860    1.6094   -1.6248 O   0  0  0  0  0  0  0  0  0  0  0  0
  1  2  1  0
  2  3  4  0
  3  4  1  0
  4  5  4  0
  5  6  4  0
  6  7  4  0
  7  8  1  0
  8  9  1  0
  9 10  4  0
 10 11  4  0
 11 12  4  0
 12 13  1  0
 13 14  1  0
 14 15  1  0
 14 16  1  0
 14 17  1  0
 12 18  4  0
 18 19  4  0
  7 20  4  0
 20 21  4  0
  3 22  4  0
 22 23  4  0
 23 24  4  0
 24 25  4  0
 25 26  4  0
 26 27  4  0
 27 28  4  0
 28 29  4  0
 29 30  2  0
 19  9  4  0
 21  4  4  0
 28 23  4  0
 29  2  4  0
M  END
>  <SMILES>  (5) 
Cc4c(c2ccc(Oc1ccc(OC(F)(F)F)cc1)nc2)[nH]c3ccccc3c4=O

>  <NumConformers>  (5) 
32

>  <EnergyUnits>  (5) 
RDKit_forcefield

>  <Processing_Time>  (5) 
33.7s

>  <Original_Conformers>  (5) 
500

>  <Total_Conformers>  (5) 
32

>  <Energy>  (5) 
68.791411665361139

>  <Energy_Unit>  (5) 
RDKit_forcefield

>  <Rank>  (5) 
5

>  <Conformer_Index>  (5) 
4

$$$$
CK-3-22 (1T)
     RDKit          3D

 30 33  0  0  0  0  0  0  0  0999 V2000
   -2.1737    1.3759   -2.0619 C   0  0  0  0  0  0  0  0  0  0  0  0
   -3.0509    0.3606   -1.3641 C   0  0  0  0  0  0  0  0  0  0  0  0
   -2.4940   -0.6973   -0.6031 C   0  0  0  0  0  0  0  0  0  0  0  0
   -1.0313   -0.8361   -0.4149 C   0  0  0  0  0  0  0  0  0  0  0  0
   -0.3774   -2.0126   -0.8039 C   0  0  0  0  0  0  0  0  0  0  0  0
    0.9982   -2.1454   -0.6073 C   0  0  0  0  0  0  0  0  0  0  0  0
    1.7137   -1.1000   -0.0177 C   0  0  0  0  0  0  0  0  0  0  0  0
    3.0908   -1.2475    0.1928 O   0  0  0  0  0  0  0  0  0  0  0  0
    3.9854   -0.2012    0.4613 C   0  0  0  0  0  0  0  0  0  0  0  0
    5.1129   -0.4698    1.2447 C   0  0  0  0  0  0  0  0  0  0  0  0
    6.0374    0.5394    1.5305 C   0  0  0  0  0  0  0  0  0  0  0  0
    5.8507    1.8384    1.0193 C   0  0  0  0  0  0  0  0  0  0  0  0
    6.7446    2.8910    1.2741 O   0  0  0  0  0  0  0  0  0  0  0  0
    7.9273    2.7944    2.0648 C   0  0  0  0  0  0  0  0  0  0  0  0
    7.6068    2.4267    3.3593 F   0  0  0  0  0  0  0  0  0  0  0  0
    8.5493    4.0275    2.0933 F   0  0  0  0  0  0  0  0  0  0  0  0
    8.7957    1.8697    1.5128 F   0  0  0  0  0  0  0  0  0  0  0  0
    4.7328    2.0997    0.2186 C   0  0  0  0  0  0  0  0  0  0  0  0
    3.8085    1.0904   -0.0658 C   0  0  0  0  0  0  0  0  0  0  0  0
    1.0561    0.0251    0.3802 N   0  0  0  0  0  0  0  0  0  0  0  0
   -0.2822    0.1789    0.1983 C   0  0  0  0  0  0  0  0  0  0  0  0
   -3.3137   -1.6238   -0.0267 N   0  0  0  0  0  0  0  0  0  0  0  0
   -4.6708   -1.5496   -0.1195 C   0  0  0  0  0  0  0  0  0  0  0  0
   -5.4763   -2.5202    0.4992 C   0  0  0  0  0  0  0  0  0  0  0  0
   -6.8680   -2.4394    0.4146 C   0  0  0  0  0  0  0  0  0  0  0  0
   -7.4678   -1.3914   -0.2853 C   0  0  0  0  0  0  0  0  0  0  0  0
   -6.6796   -0.4188   -0.9057 C   0  0  0  0  0  0  0  0  0  0  0  0
   -5.2743   -0.4884   -0.8303 C   0  0  0  0  0  0  0  0  0  0  0  0
   -4.4533    0.4710   -1.4483 C   0  0  0  0  0  0  0  0  0  0  0  0
   -4.9730    1.4319   -2.0819 O   0  0  0  0  0  0  0  0  0  0  0  0
  1  2  1  0
  2  3  4  0
  3  4  1  0
  4  5  4  0
  5  6  4  0
  6  7  4  0
  7  8  1  0
  8  9  1  0
  9 10  4  0
 10 11  4  0
 11 12  4  0
 12 13  1  0
 13 14  1  0
 14 15  1  0
 14 16  1  0
 14 17  1  0
 12 18  4  0
 18 19  4  0
  7 20  4  0
 20 21  4  0
  3 22  4  0
 22 23  4  0
 23 24  4  0
 24 25  4  0
 25 26  4  0
 26 27  4  0
 27 28  4  0
 28 29  4  0
 29 30  2  0
 19  9  4  0
 21  4  4  0
 28 23  4  0
 29  2  4  0
M  END
>  <SMILES>  (6) 
Cc4c(c2ccc(Oc1ccc(OC(F)(F)F)cc1)nc2)[nH]c3ccccc3c4=O

>  <NumConformers>  (6) 
32

>  <EnergyUnits>  (6) 
RDKit_forcefield

>  <Processing_Time>  (6) 
33.7s

>  <Original_Conformers>  (6) 
500

>  <Total_Conformers>  (6) 
32

>  <Energy>  (6) 
68.791411671425621

>  <Energy_Unit>  (6) 
RDKit_forcefield

>  <Rank>  (6) 
6

>  <Conformer_Index>  (6) 
5

$$$$
CK-3-22 (1T)
     RDKit          3D

 30 33  0  0  0  0  0  0  0  0999 V2000
   -3.0307    1.9781   -1.6849 C   0  0  0  0  0  0  0  0  0  0  0  0
   -3.4530    0.5964   -1.2379 C   0  0  0  0  0  0  0  0  0  0  0  0
   -2.6369   -0.1841   -0.3817 C   0  0  0  0  0  0  0  0  0  0  0  0
   -1.3548    0.3290    0.1542 C   0  0  0  0  0  0  0  0  0  0  0  0
   -1.3142    1.4844    0.9474 C   0  0  0  0  0  0  0  0  0  0  0  0
   -0.0972    1.9383    1.4584 C   0  0  0  0  0  0  0  0  0  0  0  0
    1.0747    1.2316    1.1767 C   0  0  0  0  0  0  0  0  0  0  0  0
    2.2894    1.6821    1.7095 O   0  0  0  0  0  0  0  0  0  0  0  0
    3.5620    1.2893    1.2696 C   0  0  0  0  0  0  0  0  0  0  0  0
    3.8239    0.9638   -0.0730 C   0  0  0  0  0  0  0  0  0  0  0  0
    5.1112    0.5894   -0.4686 C   0  0  0  0  0  0  0  0  0  0  0  0
    6.1581    0.5446    0.4594 C   0  0  0  0  0  0  0  0  0  0  0  0
    7.4300    0.1589    0.0062 O   0  0  0  0  0  0  0  0  0  0  0  0
    8.5993    0.0627    0.8167 C   0  0  0  0  0  0  0  0  0  0  0  0
    8.9028    1.2964    1.3641 F   0  0  0  0  0  0  0  0  0  0  0  0
    9.6577   -0.3477    0.0297 F   0  0  0  0  0  0  0  0  0  0  0  0
    8.4063   -0.8658    1.8239 F   0  0  0  0  0  0  0  0  0  0  0  0
    5.8991    0.8899    1.7999 C   0  0  0  0  0  0  0  0  0  0  0  0
    4.6113    1.2652    2.1946 C   0  0  0  0  0  0  0  0  0  0  0  0
    1.0117    0.0961    0.4261 N   0  0  0  0  0  0  0  0  0  0  0  0
   -0.1610   -0.3662   -0.0831 C   0  0  0  0  0  0  0  0  0  0  0  0
   -3.0263   -1.4459   -0.0368 N   0  0  0  0  0  0  0  0  0  0  0  0
   -4.2073   -1.9806   -0.4555 C   0  0  0  0  0  0  0  0  0  0  0  0
   -4.5727   -3.2802   -0.0668 C   0  0  0  0  0  0  0  0  0  0  0  0
   -5.7881   -3.8258   -0.4858 C   0  0  0  0  0  0  0  0  0  0  0  0
   -6.6491   -3.0812   -1.2935 C   0  0  0  0  0  0  0  0  0  0  0  0
   -6.2991   -1.7872   -1.6879 C   0  0  0  0  0  0  0  0  0  0  0  0
   -5.0754   -1.2245   -1.2744 C   0  0  0  0  0  0  0  0  0  0  0  0
   -4.6916    0.0722   -1.6586 C   0  0  0  0  0  0  0  0  0  0  0  0
   -5.4567    0.7675   -2.3839 O   0  0  0  0  0  0  0  0  0  0  0  0
  1  2  1  0
  2  3  4  0
  3  4  1  0
  4  5  4  0
  5  6  4  0
  6  7  4  0
  7  8  1  0
  8  9  1  0
  9 10  4  0
 10 11  4  0
 11 12  4  0
 12 13  1  0
 13 14  1  0
 14 15  1  0
 14 16  1  0
 14 17  1  0
 12 18  4  0
 18 19  4  0
  7 20  4  0
 20 21  4  0
  3 22  4  0
 22 23  4  0
 23 24  4  0
 24 25  4  0
 25 26  4  0
 26 27  4  0
 27 28  4  0
 28 29  4  0
 29 30  2  0
 19  9  4  0
 21  4  4  0
 28 23  4  0
 29  2  4  0
M  END
>  <SMILES>  (7) 
Cc4c(c2ccc(Oc1ccc(OC(F)(F)F)cc1)nc2)[nH]c3ccccc3c4=O

>  <NumConformers>  (7) 
32

>  <EnergyUnits>  (7) 
RDKit_forcefield

>  <Processing_Time>  (7) 
33.7s

>  <Original_Conformers>  (7) 
500

>  <Total_Conformers>  (7) 
32

>  <Energy>  (7) 
68.798466711605386

>  <Energy_Unit>  (7) 
RDKit_forcefield

>  <Rank>  (7) 
7

>  <Conformer_Index>  (7) 
6

$$$$
CK-3-22 (1T)
     RDKit          3D

 30 33  0  0  0  0  0  0  0  0999 V2000
   -3.3842    2.0738    0.4171 C   0  0  0  0  0  0  0  0  0  0  0  0
   -3.6579    0.6519   -0.0194 C   0  0  0  0  0  0  0  0  0  0  0  0
   -2.6188   -0.1890   -0.4898 C   0  0  0  0  0  0  0  0  0  0  0  0
   -1.2244    0.2937   -0.6208 C   0  0  0  0  0  0  0  0  0  0  0  0
   -0.9099    1.3750   -1.4562 C   0  0  0  0  0  0  0  0  0  0  0  0
    0.4138    1.8000   -1.5799 C   0  0  0  0  0  0  0  0  0  0  0  0
    1.4189    1.1384   -0.8698 C   0  0  0  0  0  0  0  0  0  0  0  0
    2.7475    1.5581   -1.0144 O   0  0  0  0  0  0  0  0  0  0  0  0
    3.8009    1.2246   -0.1503 C   0  0  0  0  0  0  0  0  0  0  0  0
    3.6052    1.0230    1.2274 C   0  0  0  0  0  0  0  0  0  0  0  0
    4.6871    0.7042    2.0531 C   0  0  0  0  0  0  0  0  0  0  0  0
    5.9788    0.5931    1.5254 C   0  0  0  0  0  0  0  0  0  0  0  0
    7.0272    0.2680    2.4013 O   0  0  0  0  0  0  0  0  0  0  0  0
    8.3954    0.1179    2.0287 C   0  0  0  0  0  0  0  0  0  0  0  0
    8.8793    1.3028    1.5037 F   0  0  0  0  0  0  0  0  0  0  0  0
    9.1327   -0.2055    3.1512 F   0  0  0  0  0  0  0  0  0  0  0  0
    8.5280   -0.8988    1.1000 F   0  0  0  0  0  0  0  0  0  0  0  0
    6.1767    0.8147    0.1488 C   0  0  0  0  0  0  0  0  0  0  0  0
    5.0941    1.1345   -0.6761 C   0  0  0  0  0  0  0  0  0  0  0  0
    1.0974    0.0728   -0.0836 N   0  0  0  0  0  0  0  0  0  0  0  0
   -0.1839   -0.3599    0.0535 C   0  0  0  0  0  0  0  0  0  0  0  0
   -2.8929   -1.4820   -0.8300 N   0  0  0  0  0  0  0  0  0  0  0  0
   -4.1537   -1.9951   -0.7742 C   0  0  0  0  0  0  0  0  0  0  0  0
   -4.3915   -3.3293   -1.1444 C   0  0  0  0  0  0  0  0  0  0  0  0
   -5.6851   -3.8537   -1.0986 C   0  0  0  0  0  0  0  0  0  0  0  0
   -6.7514   -3.0535   -0.6854 C   0  0  0  0  0  0  0  0  0  0  0  0
   -6.5301   -1.7247   -0.3143 C   0  0  0  0  0  0  0  0  0  0  0  0
   -5.2302   -1.1826   -0.3538 C   0  0  0  0  0  0  0  0  0  0  0  0
   -4.9737    0.1485    0.0185 C   0  0  0  0  0  0  0  0  0  0  0  0
   -5.9232    0.8938    0.3898 O   0  0  0  0  0  0  0  0  0  0  0  0
  1  2  1  0
  2  3  4  0
  3  4  1  0
  4  5  4  0
  5  6  4  0
  6  7  4  0
  7  8  1  0
  8  9  1  0
  9 10  4  0
 10 11  4  0
 11 12  4  0
 12 13  1  0
 13 14  1  0
 14 15  1  0
 14 16  1  0
 14 17  1  0
 12 18  4  0
 18 19  4  0
  7 20  4  0
 20 21  4  0
  3 22  4  0
 22 23  4  0
 23 24  4  0
 24 25  4  0
 25 26  4  0
 26 27  4  0
 27 28  4  0
 28 29  4  0
 29 30  2  0
 19  9  4  0
 21  4  4  0
 28 23  4  0
 29  2  4  0
M  END
>  <SMILES>  (8) 
Cc4c(c2ccc(Oc1ccc(OC(F)(F)F)cc1)nc2)[nH]c3ccccc3c4=O

>  <NumConformers>  (8) 
32

>  <EnergyUnits>  (8) 
RDKit_forcefield

>  <Processing_Time>  (8) 
33.7s

>  <Original_Conformers>  (8) 
500

>  <Total_Conformers>  (8) 
32

>  <Energy>  (8) 
68.798466716926654

>  <Energy_Unit>  (8) 
RDKit_forcefield

>  <Rank>  (8) 
8

>  <Conformer_Index>  (8) 
7

$$$$
CK-3-22 (1T)
     RDKit          3D

 30 33  0  0  0  0  0  0  0  0999 V2000
   -3.3113    1.8834   -1.9688 C   0  0  0  0  0  0  0  0  0  0  0  0
   -3.5400    0.5479   -1.2970 C   0  0  0  0  0  0  0  0  0  0  0  0
   -2.5516   -0.0416   -0.4701 C   0  0  0  0  0  0  0  0  0  0  0  0
   -1.2666    0.6380   -0.1849 C   0  0  0  0  0  0  0  0  0  0  0  0
   -1.2358    1.8919    0.4418 C   0  0  0  0  0  0  0  0  0  0  0  0
   -0.0125    2.5039    0.7196 C   0  0  0  0  0  0  0  0  0  0  0  0
    1.1764    1.8494    0.3871 C   0  0  0  0  0  0  0  0  0  0  0  0
    2.3998    2.4796    0.6491 O   0  0  0  0  0  0  0  0  0  0  0  0
    3.6491    1.8426    0.6776 C   0  0  0  0  0  0  0  0  0  0  0  0
    4.7826    2.5773    0.3142 C   0  0  0  0  0  0  0  0  0  0  0  0
    6.0486    1.9855    0.3373 C   0  0  0  0  0  0  0  0  0  0  0  0
    6.2050    0.6535    0.7377 C   0  0  0  0  0  0  0  0  0  0  0  0
    7.4996    0.1094    0.7398 O   0  0  0  0  0  0  0  0  0  0  0  0
    7.8320   -1.2246    1.1185 C   0  0  0  0  0  0  0  0  0  0  0  0
    9.1960   -1.4006    0.9889 F   0  0  0  0  0  0  0  0  0  0  0  0
    7.1855   -2.1292    0.2953 F   0  0  0  0  0  0  0  0  0  0  0  0
    7.4768   -1.4486    2.4366 F   0  0  0  0  0  0  0  0  0  0  0  0
    5.0683   -0.0825    1.1245 C   0  0  0  0  0  0  0  0  0  0  0  0
    3.8020    0.5100    1.1001 C   0  0  0  0  0  0  0  0  0  0  0  0
    1.1265    0.6292   -0.2173 N   0  0  0  0  0  0  0  0  0  0  0  0
   -0.0520    0.0130   -0.4989 C   0  0  0  0  0  0  0  0  0  0  0  0
   -2.7722   -1.2704    0.0813 N   0  0  0  0  0  0  0  0  0  0  0  0
   -3.9402   -1.9477   -0.0996 C   0  0  0  0  0  0  0  0  0  0  0  0
   -4.1280   -3.2060    0.4963 C   0  0  0  0  0  0  0  0  0  0  0  0
   -5.3291   -3.8968    0.3212 C   0  0  0  0  0  0  0  0  0  0  0  0
   -6.3524   -3.3394   -0.4471 C   0  0  0  0  0  0  0  0  0  0  0  0
   -6.1801   -2.0887   -1.0459 C   0  0  0  0  0  0  0  0  0  0  0  0
   -4.9730   -1.3812   -0.8794 C   0  0  0  0  0  0  0  0  0  0  0  0
   -4.7663   -0.1238   -1.4732 C   0  0  0  0  0  0  0  0  0  0  0  0
   -5.6797    0.4036   -2.1677 O   0  0  0  0  0  0  0  0  0  0  0  0
  1  2  1  0
  2  3  4  0
  3  4  1  0
  4  5  4  0
  5  6  4  0
  6  7  4  0
  7  8  1  0
  8  9  1  0
  9 10  4  0
 10 11  4  0
 11 12  4  0
 12 13  1  0
 13 14  1  0
 14 15  1  0
 14 16  1  0
 14 17  1  0
 12 18  4  0
 18 19  4  0
  7 20  4  0
 20 21  4  0
  3 22  4  0
 22 23  4  0
 23 24  4  0
 24 25  4  0
 25 26  4  0
 26 27  4  0
 27 28  4  0
 28 29  4  0
 29 30  2  0
 19  9  4  0
 21  4  4  0
 28 23  4  0
 29  2  4  0
M  END
>  <SMILES>  (9) 
Cc4c(c2ccc(Oc1ccc(OC(F)(F)F)cc1)nc2)[nH]c3ccccc3c4=O

>  <NumConformers>  (9) 
32

>  <EnergyUnits>  (9) 
RDKit_forcefield

>  <Processing_Time>  (9) 
33.7s

>  <Original_Conformers>  (9) 
500

>  <Total_Conformers>  (9) 
32

>  <Energy>  (9) 
68.808661039198853

>  <Energy_Unit>  (9) 
RDKit_forcefield

>  <Rank>  (9) 
9

>  <Conformer_Index>  (9) 
8

$$$$
CK-3-22 (1T)
     RDKit          3D

 30 33  0  0  0  0  0  0  0  0999 V2000
   -3.6158    2.2792   -0.2828 C   0  0  0  0  0  0  0  0  0  0  0  0
   -3.7118    0.7713   -0.3457 C   0  0  0  0  0  0  0  0  0  0  0  0
   -2.5540   -0.0384   -0.4565 C   0  0  0  0  0  0  0  0  0  0  0  0
   -1.1984    0.5493   -0.5624 C   0  0  0  0  0  0  0  0  0  0  0  0
   -0.8636    1.4080   -1.6191 C   0  0  0  0  0  0  0  0  0  0  0  0
    0.4263    1.9334   -1.7101 C   0  0  0  0  0  0  0  0  0  0  0  0
    1.3824    1.5815   -0.7539 C   0  0  0  0  0  0  0  0  0  0  0  0
    2.6686    2.1301   -0.8395 O   0  0  0  0  0  0  0  0  0  0  0  0
    3.8029    1.6428   -0.1736 C   0  0  0  0  0  0  0  0  0  0  0  0
    4.8050    2.5482    0.1904 C   0  0  0  0  0  0  0  0  0  0  0  0
    5.9566    2.1051    0.8468 C   0  0  0  0  0  0  0  0  0  0  0  0
    6.1328    0.7475    1.1380 C   0  0  0  0  0  0  0  0  0  0  0  0
    7.3080    0.3585    1.8010 O   0  0  0  0  0  0  0  0  0  0  0  0
    7.6422   -0.9778    2.1696 C   0  0  0  0  0  0  0  0  0  0  0  0
    8.8676   -0.9737    2.8071 F   0  0  0  0  0  0  0  0  0  0  0  0
    7.7285   -1.7758    1.0429 F   0  0  0  0  0  0  0  0  0  0  0  0
    6.6906   -1.4858    3.0359 F   0  0  0  0  0  0  0  0  0  0  0  0
    5.1353   -0.1696    0.7539 C   0  0  0  0  0  0  0  0  0  0  0  0
    3.9829    0.2748    0.0981 C   0  0  0  0  0  0  0  0  0  0  0  0
    1.0398    0.7420    0.2632 N   0  0  0  0  0  0  0  0  0  0  0  0
   -0.2097    0.2179    0.3740 C   0  0  0  0  0  0  0  0  0  0  0  0
   -2.6741   -1.3979   -0.4618 N   0  0  0  0  0  0  0  0  0  0  0  0
   -3.8850   -2.0195   -0.4055 C   0  0  0  0  0  0  0  0  0  0  0  0
   -3.9617   -3.4222   -0.4244 C   0  0  0  0  0  0  0  0  0  0  0  0
   -5.2028   -4.0610   -0.3781 C   0  0  0  0  0  0  0  0  0  0  0  0
   -6.3764   -3.3081   -0.3141 C   0  0  0  0  0  0  0  0  0  0  0  0
   -6.3157   -1.9124   -0.2946 C   0  0  0  0  0  0  0  0  0  0  0  0
   -5.0706   -1.2543   -0.3389 C   0  0  0  0  0  0  0  0  0  0  0  0
   -4.9754    0.1481   -0.3151 C   0  0  0  0  0  0  0  0  0  0  0  0
   -6.0235    0.8507   -0.2636 O   0  0  0  0  0  0  0  0  0  0  0  0
  1  2  1  0
  2  3  4  0
  3  4  1  0
  4  5  4  0
  5  6  4  0
  6  7  4  0
  7  8  1  0
  8  9  1  0
  9 10  4  0
 10 11  4  0
 11 12  4  0
 12 13  1  0
 13 14  1  0
 14 15  1  0
 14 16  1  0
 14 17  1  0
 12 18  4  0
 18 19  4  0
  7 20  4  0
 20 21  4  0
  3 22  4  0
 22 23  4  0
 23 24  4  0
 24 25  4  0
 25 26  4  0
 26 27  4  0
 27 28  4  0
 28 29  4  0
 29 30  2  0
 19  9  4  0
 21  4  4  0
 28 23  4  0
 29  2  4  0
M  END
>  <SMILES>  (10) 
Cc4c(c2ccc(Oc1ccc(OC(F)(F)F)cc1)nc2)[nH]c3ccccc3c4=O

>  <NumConformers>  (10) 
32

>  <EnergyUnits>  (10) 
RDKit_forcefield

>  <Processing_Time>  (10) 
33.7s

>  <Original_Conformers>  (10) 
500

>  <Total_Conformers>  (10) 
32

>  <Energy>  (10) 
68.808661052995561

>  <Energy_Unit>  (10) 
RDKit_forcefield

>  <Rank>  (10) 
10

>  <Conformer_Index>  (10) 
9

$$$$
CK-3-22 (1T)
     RDKit          3D

 30 33  0  0  0  0  0  0  0  0999 V2000
   -3.5703    2.2781   -0.1401 C   0  0  0  0  0  0  0  0  0  0  0  0
   -3.7528    0.7843   -0.2901 C   0  0  0  0  0  0  0  0  0  0  0  0
   -2.6438   -0.0821   -0.4568 C   0  0  0  0  0  0  0  0  0  0  0  0
   -1.2572    0.4329   -0.5385 C   0  0  0  0  0  0  0  0  0  0  0  0
   -0.8783    1.3316   -1.5458 C   0  0  0  0  0  0  0  0  0  0  0  0
    0.4391    1.7873   -1.6158 C   0  0  0  0  0  0  0  0  0  0  0  0
    1.3776    1.3261   -0.6890 C   0  0  0  0  0  0  0  0  0  0  0  0
    2.6927    1.8047   -0.7521 O   0  0  0  0  0  0  0  0  0  0  0  0
    3.8001    1.2158   -0.1243 C   0  0  0  0  0  0  0  0  0  0  0  0
    4.8542    2.0401    0.2836 C   0  0  0  0  0  0  0  0  0  0  0  0
    5.9830    1.4967    0.9046 C   0  0  0  0  0  0  0  0  0  0  0  0
    6.0779    0.1073    1.1140 C   0  0  0  0  0  0  0  0  0  0  0  0
    7.1858   -0.4940    1.7329 O   0  0  0  0  0  0  0  0  0  0  0  0
    8.3317    0.1985    2.2236 C   0  0  0  0  0  0  0  0  0  0  0  0
    9.2102   -0.7182    2.7678 F   0  0  0  0  0  0  0  0  0  0  0  0
    7.9605    1.0983    3.2067 F   0  0  0  0  0  0  0  0  0  0  0  0
    8.9656    0.8640    1.1897 F   0  0  0  0  0  0  0  0  0  0  0  0
    5.0312   -0.7178    0.6863 C   0  0  0  0  0  0  0  0  0  0  0  0
    3.9027   -0.1735    0.0665 C   0  0  0  0  0  0  0  0  0  0  0  0
    0.9918    0.4492    0.2799 N   0  0  0  0  0  0  0  0  0  0  0  0
   -0.2851   -0.0087    0.3695 C   0  0  0  0  0  0  0  0  0  0  0  0
   -2.8415   -1.4298   -0.5405 N   0  0  0  0  0  0  0  0  0  0  0  0
   -4.0858   -1.9837   -0.5114 C   0  0  0  0  0  0  0  0  0  0  0  0
   -4.2428   -3.3762   -0.6115 C   0  0  0  0  0  0  0  0  0  0  0  0
   -5.5181   -3.9450   -0.5932 C   0  0  0  0  0  0  0  0  0  0  0  0
   -6.6465   -3.1317   -0.4765 C   0  0  0  0  0  0  0  0  0  0  0  0
   -6.5059   -1.7451   -0.3760 C   0  0  0  0  0  0  0  0  0  0  0  0
   -5.2254   -1.1575   -0.3913 C   0  0  0  0  0  0  0  0  0  0  0  0
   -5.0499    0.2334   -0.2864 C   0  0  0  0  0  0  0  0  0  0  0  0
   -6.0559    0.9902   -0.1860 O   0  0  0  0  0  0  0  0  0  0  0  0
  1  2  1  0
  2  3  4  0
  3  4  1  0
  4  5  4  0
  5  6  4  0
  6  7  4  0
  7  8  1  0
  8  9  1  0
  9 10  4  0
 10 11  4  0
 11 12  4  0
 12 13  1  0
 13 14  1  0
 14 15  1  0
 14 16  1  0
 14 17  1  0
 12 18  4  0
 18 19  4  0
  7 20  4  0
 20 21  4  0
  3 22  4  0
 22 23  4  0
 23 24  4  0
 24 25  4  0
 25 26  4  0
 26 27  4  0
 27 28  4  0
 28 29  4  0
 29 30  2  0
 19  9  4  0
 21  4  4  0
 28 23  4  0
 29  2  4  0
M  END
>  <SMILES>  (11) 
Cc4c(c2ccc(Oc1ccc(OC(F)(F)F)cc1)nc2)[nH]c3ccccc3c4=O

>  <NumConformers>  (11) 
32

>  <EnergyUnits>  (11) 
RDKit_forcefield

>  <Processing_Time>  (11) 
33.7s

>  <Original_Conformers>  (11) 
500

>  <Total_Conformers>  (11) 
32

>  <Energy>  (11) 
68.819026096329608

>  <Energy_Unit>  (11) 
RDKit_forcefield

>  <Rank>  (11) 
11

>  <Conformer_Index>  (11) 
10

$$$$
CK-3-22 (1T)
     RDKit          3D

 30 33  0  0  0  0  0  0  0  0999 V2000
   -3.2792    2.0039   -1.7931 C   0  0  0  0  0  0  0  0  0  0  0  0
   -3.5834    0.6247   -1.2522 C   0  0  0  0  0  0  0  0  0  0  0  0
   -2.6427   -0.0831   -0.4633 C   0  0  0  0  0  0  0  0  0  0  0  0
   -1.3361    0.5071   -0.0907 C   0  0  0  0  0  0  0  0  0  0  0  0
   -1.2650    1.6958    0.6496 C   0  0  0  0  0  0  0  0  0  0  0  0
   -0.0228    2.2224    1.0074 C   0  0  0  0  0  0  0  0  0  0  0  0
    1.1436    1.5465    0.6400 C   0  0  0  0  0  0  0  0  0  0  0  0
    2.3870    2.0927    0.9837 O   0  0  0  0  0  0  0  0  0  0  0  0
    3.6059    1.3987    0.9784 C   0  0  0  0  0  0  0  0  0  0  0  0
    3.6893    0.0275    1.2783 C   0  0  0  0  0  0  0  0  0  0  0  0
    4.9279   -0.6204    1.2731 C   0  0  0  0  0  0  0  0  0  0  0  0
    6.1011    0.0855    0.9824 C   0  0  0  0  0  0  0  0  0  0  0  0
    7.3168   -0.6174    0.9890 O   0  0  0  0  0  0  0  0  0  0  0  0
    8.5971   -0.0515    0.7169 C   0  0  0  0  0  0  0  0  0  0  0  0
    8.8865    0.9385    1.6388 F   0  0  0  0  0  0  0  0  0  0  0  0
    9.5546   -1.0425    0.8125 F   0  0  0  0  0  0  0  0  0  0  0  0
    8.6244    0.4729   -0.5630 F   0  0  0  0  0  0  0  0  0  0  0  0
    6.0187    1.4631    0.7016 C   0  0  0  0  0  0  0  0  0  0  0  0
    4.7795    2.1105    0.7080 C   0  0  0  0  0  0  0  0  0  0  0  0
    1.0544    0.3902   -0.0753 N   0  0  0  0  0  0  0  0  0  0  0  0
   -0.1431   -0.1424   -0.4364 C   0  0  0  0  0  0  0  0  0  0  0  0
   -2.9310   -1.3455   -0.0323 N   0  0  0  0  0  0  0  0  0  0  0  0
   -4.1232   -1.9485   -0.2986 C   0  0  0  0  0  0  0  0  0  0  0  0
   -4.3812   -3.2458    0.1747 C   0  0  0  0  0  0  0  0  0  0  0  0
   -5.6072   -3.8611   -0.0877 C   0  0  0  0  0  0  0  0  0  0  0  0
   -6.5856   -3.1890   -0.8219 C   0  0  0  0  0  0  0  0  0  0  0  0
   -6.3433   -1.8983   -1.2991 C   0  0  0  0  0  0  0  0  0  0  0  0
   -5.1105   -1.2657   -1.0436 C   0  0  0  0  0  0  0  0  0  0  0  0
   -4.8336    0.0297   -1.5145 C   0  0  0  0  0  0  0  0  0  0  0  0
   -5.7054    0.6601   -2.1757 O   0  0  0  0  0  0  0  0  0  0  0  0
  1  2  1  0
  2  3  4  0
  3  4  1  0
  4  5  4  0
  5  6  4  0
  6  7  4  0
  7  8  1  0
  8  9  1  0
  9 10  4  0
 10 11  4  0
 11 12  4  0
 12 13  1  0
 13 14  1  0
 14 15  1  0
 14 16  1  0
 14 17  1  0
 12 18  4  0
 18 19  4  0
  7 20  4  0
 20 21  4  0
  3 22  4  0
 22 23  4  0
 23 24  4  0
 24 25  4  0
 25 26  4  0
 26 27  4  0
 27 28  4  0
 28 29  4  0
 29 30  2  0
 19  9  4  0
 21  4  4  0
 28 23  4  0
 29  2  4  0
M  END
>  <SMILES>  (12) 
Cc4c(c2ccc(Oc1ccc(OC(F)(F)F)cc1)nc2)[nH]c3ccccc3c4=O

>  <NumConformers>  (12) 
32

>  <EnergyUnits>  (12) 
RDKit_forcefield

>  <Processing_Time>  (12) 
33.7s

>  <Original_Conformers>  (12) 
500

>  <Total_Conformers>  (12) 
32

>  <Energy>  (12) 
68.81902609667452

>  <Energy_Unit>  (12) 
RDKit_forcefield

>  <Rank>  (12) 
12

>  <Conformer_Index>  (12) 
11

$$$$
CK-3-22 (1T)
     RDKit          3D

 30 33  0  0  0  0  0  0  0  0999 V2000
   -2.3521    1.2845   -2.3975 C   0  0  0  0  0  0  0  0  0  0  0  0
   -3.0444    0.2141   -1.5838 C   0  0  0  0  0  0  0  0  0  0  0  0
   -2.5475   -0.1893   -0.3194 C   0  0  0  0  0  0  0  0  0  0  0  0
   -1.3039    0.3814    0.2481 C   0  0  0  0  0  0  0  0  0  0  0  0
   -1.3251    1.0214    1.4942 C   0  0  0  0  0  0  0  0  0  0  0  0
   -0.1466    1.5397    2.0337 C   0  0  0  0  0  0  0  0  0  0  0  0
    1.0533    1.3972    1.3321 C   0  0  0  0  0  0  0  0  0  0  0  0
    2.2277    1.9401    1.8691 O   0  0  0  0  0  0  0  0  0  0  0  0
    3.5302    1.6123    1.4649 C   0  0  0  0  0  0  0  0  0  0  0  0
    4.5268    2.5887    1.5643 C   0  0  0  0  0  0  0  0  0  0  0  0
    5.8403    2.3028    1.1818 C   0  0  0  0  0  0  0  0  0  0  0  0
    6.1832    1.0316    0.7068 C   0  0  0  0  0  0  0  0  0  0  0  0
    7.5174    0.8005    0.3345 O   0  0  0  0  0  0  0  0  0  0  0  0
    8.0313   -0.4319   -0.1661 C   0  0  0  0  0  0  0  0  0  0  0  0
    9.3792   -0.2818   -0.4283 F   0  0  0  0  0  0  0  0  0  0  0  0
    7.3845   -0.7770   -1.3393 F   0  0  0  0  0  0  0  0  0  0  0  0
    7.8690   -1.4333    0.7745 F   0  0  0  0  0  0  0  0  0  0  0  0
    5.1865    0.0399    0.6256 C   0  0  0  0  0  0  0  0  0  0  0  0
    3.8723    0.3272    1.0075 C   0  0  0  0  0  0  0  0  0  0  0  0
    1.0557    0.7663    0.1243 N   0  0  0  0  0  0  0  0  0  0  0  0
   -0.0787    0.2552   -0.4231 C   0  0  0  0  0  0  0  0  0  0  0  0
   -3.2245   -1.1234    0.4097 N   0  0  0  0  0  0  0  0  0  0  0  0
   -4.3554   -1.7253   -0.0535 C   0  0  0  0  0  0  0  0  0  0  0  0
   -5.0139   -2.6901    0.7271 C   0  0  0  0  0  0  0  0  0  0  0  0
   -6.1671   -3.3163    0.2491 C   0  0  0  0  0  0  0  0  0  0  0  0
   -6.6723   -2.9876   -1.0099 C   0  0  0  0  0  0  0  0  0  0  0  0
   -6.0281   -2.0300   -1.7975 C   0  0  0  0  0  0  0  0  0  0  0  0
   -4.8649   -1.3888   -1.3275 C   0  0  0  0  0  0  0  0  0  0  0  0
   -4.1969   -0.4171   -2.0930 C   0  0  0  0  0  0  0  0  0  0  0  0
   -4.6315   -0.1075   -3.2375 O   0  0  0  0  0  0  0  0  0  0  0  0
  1  2  1  0
  2  3  4  0
  3  4  1  0
  4  5  4  0
  5  6  4  0
  6  7  4  0
  7  8  1  0
  8  9  1  0
  9 10  4  0
 10 11  4  0
 11 12  4  0
 12 13  1  0
 13 14  1  0
 14 15  1  0
 14 16  1  0
 14 17  1  0
 12 18  4  0
 18 19  4  0
  7 20  4  0
 20 21  4  0
  3 22  4  0
 22 23  4  0
 23 24  4  0
 24 25  4  0
 25 26  4  0
 26 27  4  0
 27 28  4  0
 28 29  4  0
 29 30  2  0
 19  9  4  0
 21  4  4  0
 28 23  4  0
 29  2  4  0
M  END
>  <SMILES>  (13) 
Cc4c(c2ccc(Oc1ccc(OC(F)(F)F)cc1)nc2)[nH]c3ccccc3c4=O

>  <NumConformers>  (13) 
32

>  <EnergyUnits>  (13) 
RDKit_forcefield

>  <Processing_Time>  (13) 
33.7s

>  <Original_Conformers>  (13) 
500

>  <Total_Conformers>  (13) 
32

>  <Energy>  (13) 
68.831017066814297

>  <Energy_Unit>  (13) 
RDKit_forcefield

>  <Rank>  (13) 
13

>  <Conformer_Index>  (13) 
12

$$$$
CK-3-22 (1T)
     RDKit          3D

 30 33  0  0  0  0  0  0  0  0999 V2000
   -1.7842   -1.2056   -2.9227 C   0  0  0  0  0  0  0  0  0  0  0  0
   -2.7847   -0.9245   -1.8239 C   0  0  0  0  0  0  0  0  0  0  0  0
   -2.3918   -0.8718   -0.4634 C   0  0  0  0  0  0  0  0  0  0  0  0
   -0.9790   -1.0430   -0.0523 C   0  0  0  0  0  0  0  0  0  0  0  0
   -0.6227   -2.0585    0.8447 C   0  0  0  0  0  0  0  0  0  0  0  0
    0.7069   -2.2029    1.2445 C   0  0  0  0  0  0  0  0  0  0  0  0
    1.6721   -1.3164    0.7599 C   0  0  0  0  0  0  0  0  0  0  0  0
    3.0081   -1.4818    1.1476 O   0  0  0  0  0  0  0  0  0  0  0  0
    4.0152   -0.5144    1.0165 C   0  0  0  0  0  0  0  0  0  0  0  0
    3.7502    0.8628    1.1204 C   0  0  0  0  0  0  0  0  0  0  0  0
    4.7867    1.7931    0.9953 C   0  0  0  0  0  0  0  0  0  0  0  0
    6.1085    1.3593    0.7759 C   0  0  0  0  0  0  0  0  0  0  0  0
    7.1872    2.2480    0.6398 O   0  0  0  0  0  0  0  0  0  0  0  0
    7.0958    3.6698    0.6989 C   0  0  0  0  0  0  0  0  0  0  0  0
    6.6149    4.0657    1.9341 F   0  0  0  0  0  0  0  0  0  0  0  0
    6.2639    4.1364   -0.3032 F   0  0  0  0  0  0  0  0  0  0  0  0
    8.3553    4.2077    0.5184 F   0  0  0  0  0  0  0  0  0  0  0  0
    6.3686   -0.0134    0.6934 C   0  0  0  0  0  0  0  0  0  0  0  0
    5.3322   -0.9426    0.8197 C   0  0  0  0  0  0  0  0  0  0  0  0
    1.3060   -0.3310   -0.1071 N   0  0  0  0  0  0  0  0  0  0  0  0
    0.0186   -0.1712   -0.5130 C   0  0  0  0  0  0  0  0  0  0  0  0
   -3.3292   -0.6641    0.5065 N   0  0  0  0  0  0  0  0  0  0  0  0
   -4.6439   -0.4604    0.2132 C   0  0  0  0  0  0  0  0  0  0  0  0
   -5.5727   -0.2396    1.2438 C   0  0  0  0  0  0  0  0  0  0  0  0
   -6.9189   -0.0194    0.9443 C   0  0  0  0  0  0  0  0  0  0  0  0
   -7.3500   -0.0162   -0.3832 C   0  0  0  0  0  0  0  0  0  0  0  0
   -6.4377   -0.2344   -1.4188 C   0  0  0  0  0  0  0  0  0  0  0  0
   -5.0768   -0.4596   -1.1315 C   0  0  0  0  0  0  0  0  0  0  0  0
   -4.1351   -0.6879   -2.1501 C   0  0  0  0  0  0  0  0  0  0  0  0
   -4.5001   -0.6836   -3.3591 O   0  0  0  0  0  0  0  0  0  0  0  0
  1  2  1  0
  2  3  4  0
  3  4  1  0
  4  5  4  0
  5  6  4  0
  6  7  4  0
  7  8  1  0
  8  9  1  0
  9 10  4  0
 10 11  4  0
 11 12  4  0
 12 13  1  0
 13 14  1  0
 14 15  1  0
 14 16  1  0
 14 17  1  0
 12 18  4  0
 18 19  4  0
  7 20  4  0
 20 21  4  0
  3 22  4  0
 22 23  4  0
 23 24  4  0
 24 25  4  0
 25 26  4  0
 26 27  4  0
 27 28  4  0
 28 29  4  0
 29 30  2  0
 19  9  4  0
 21  4  4  0
 28 23  4  0
 29  2  4  0
M  END
>  <SMILES>  (14) 
Cc4c(c2ccc(Oc1ccc(OC(F)(F)F)cc1)nc2)[nH]c3ccccc3c4=O

>  <NumConformers>  (14) 
32

>  <EnergyUnits>  (14) 
RDKit_forcefield

>  <Processing_Time>  (14) 
33.7s

>  <Original_Conformers>  (14) 
500

>  <Total_Conformers>  (14) 
32

>  <Energy>  (14) 
68.831017080373542

>  <Energy_Unit>  (14) 
RDKit_forcefield

>  <Rank>  (14) 
14

>  <Conformer_Index>  (14) 
13

$$$$
CK-3-22 (1T)
     RDKit          3D

 30 33  0  0  0  0  0  0  0  0999 V2000
   -2.3130    0.9351   -2.6018 C   0  0  0  0  0  0  0  0  0  0  0  0
   -3.0826    0.0107   -1.6852 C   0  0  0  0  0  0  0  0  0  0  0  0
   -2.6257   -0.2788   -0.3753 C   0  0  0  0  0  0  0  0  0  0  0  0
   -1.3523    0.2702    0.1456 C   0  0  0  0  0  0  0  0  0  0  0  0
   -1.3427    1.0468    1.3117 C   0  0  0  0  0  0  0  0  0  0  0  0
   -0.1376    1.5450    1.8096 C   0  0  0  0  0  0  0  0  0  0  0  0
    1.0568    1.2464    1.1487 C   0  0  0  0  0  0  0  0  0  0  0  0
    2.2596    1.7690    1.6413 O   0  0  0  0  0  0  0  0  0  0  0  0
    3.5413    1.3140    1.2984 C   0  0  0  0  0  0  0  0  0  0  0  0
    4.5997    2.2287    1.3054 C   0  0  0  0  0  0  0  0  0  0  0  0
    5.8963    1.8188    0.9801 C   0  0  0  0  0  0  0  0  0  0  0  0
    6.1545    0.4732    0.6548 C   0  0  0  0  0  0  0  0  0  0  0  0
    7.4351    0.0048    0.3190 O   0  0  0  0  0  0  0  0  0  0  0  0
    8.6149    0.8034    0.2591 C   0  0  0  0  0  0  0  0  0  0  0  0
    8.8790    1.3577    1.4987 F   0  0  0  0  0  0  0  0  0  0  0  0
    8.4656    1.8049   -0.6836 F   0  0  0  0  0  0  0  0  0  0  0  0
    9.6798    0.0031   -0.1066 F   0  0  0  0  0  0  0  0  0  0  0  0
    5.0977   -0.4445    0.6687 C   0  0  0  0  0  0  0  0  0  0  0  0
    3.8016   -0.0337    0.9931 C   0  0  0  0  0  0  0  0  0  0  0  0
    1.0288    0.4844    0.0194 N   0  0  0  0  0  0  0  0  0  0  0  0
   -0.1319   -0.0104   -0.4864 C   0  0  0  0  0  0  0  0  0  0  0  0
   -3.3702   -1.0787    0.4423 N   0  0  0  0  0  0  0  0  0  0  0  0
   -4.5343   -1.6541    0.0304 C   0  0  0  0  0  0  0  0  0  0  0  0
   -5.2628   -2.4797    0.9028 C   0  0  0  0  0  0  0  0  0  0  0  0
   -6.4505   -3.0795    0.4786 C   0  0  0  0  0  0  0  0  0  0  0  0
   -6.9209   -2.8629   -0.8176 C   0  0  0  0  0  0  0  0  0  0  0  0
   -6.2070   -2.0443   -1.6965 C   0  0  0  0  0  0  0  0  0  0  0  0
   -5.0081   -1.4311   -1.2817 C   0  0  0  0  0  0  0  0  0  0  0  0
   -4.2697   -0.5976   -2.1398 C   0  0  0  0  0  0  0  0  0  0  0  0
   -4.6719   -0.3915   -3.3191 O   0  0  0  0  0  0  0  0  0  0  0  0
  1  2  1  0
  2  3  4  0
  3  4  1  0
  4  5  4  0
  5  6  4  0
  6  7  4  0
  7  8  1  0
  8  9  1  0
  9 10  4  0
 10 11  4  0
 11 12  4  0
 12 13  1  0
 13 14  1  0
 14 15  1  0
 14 16  1  0
 14 17  1  0
 12 18  4  0
 18 19  4  0
  7 20  4  0
 20 21  4  0
  3 22  4  0
 22 23  4  0
 23 24  4  0
 24 25  4  0
 25 26  4  0
 26 27  4  0
 27 28  4  0
 28 29  4  0
 29 30  2  0
 19  9  4  0
 21  4  4  0
 28 23  4  0
 29  2  4  0
M  END
>  <SMILES>  (15) 
Cc4c(c2ccc(Oc1ccc(OC(F)(F)F)cc1)nc2)[nH]c3ccccc3c4=O

>  <NumConformers>  (15) 
32

>  <EnergyUnits>  (15) 
RDKit_forcefield

>  <Processing_Time>  (15) 
33.7s

>  <Original_Conformers>  (15) 
500

>  <Total_Conformers>  (15) 
32

>  <Energy>  (15) 
68.841274882954949

>  <Energy_Unit>  (15) 
RDKit_forcefield

>  <Rank>  (15) 
15

>  <Conformer_Index>  (15) 
14

$$$$
CK-3-22 (1T)
     RDKit          3D

 30 33  0  0  0  0  0  0  0  0999 V2000
   -1.8467   -1.0585   -2.9431 C   0  0  0  0  0  0  0  0  0  0  0  0
   -2.8698   -0.8990   -1.8409 C   0  0  0  0  0  0  0  0  0  0  0  0
   -2.4872   -0.8709   -0.4767 C   0  0  0  0  0  0  0  0  0  0  0  0
   -1.0670   -0.9498   -0.0632 C   0  0  0  0  0  0  0  0  0  0  0  0
   -0.6371   -1.9702    0.7952 C   0  0  0  0  0  0  0  0  0  0  0  0
    0.6982   -2.0283    1.1979 C   0  0  0  0  0  0  0  0  0  0  0  0
    1.5944   -1.0519    0.7553 C   0  0  0  0  0  0  0  0  0  0  0  0
    2.9377   -1.1300    1.1450 O   0  0  0  0  0  0  0  0  0  0  0  0
    3.8683   -0.0841    1.0591 C   0  0  0  0  0  0  0  0  0  0  0  0
    5.2151   -0.4025    0.8550 C   0  0  0  0  0  0  0  0  0  0  0  0
    6.1800    0.6061    0.7725 C   0  0  0  0  0  0  0  0  0  0  0  0
    5.8074    1.9573    0.9088 C   0  0  0  0  0  0  0  0  0  0  0  0
    6.7318    3.0118    0.8337 O   0  0  0  0  0  0  0  0  0  0  0  0
    8.1327    2.8650    0.6120 C   0  0  0  0  0  0  0  0  0  0  0  0
    8.7177    4.1163    0.5975 F   0  0  0  0  0  0  0  0  0  0  0  0
    8.3610    2.2520   -0.6070 F   0  0  0  0  0  0  0  0  0  0  0  0
    8.7009    2.1190    1.6291 F   0  0  0  0  0  0  0  0  0  0  0  0
    4.4623    2.2723    1.1338 C   0  0  0  0  0  0  0  0  0  0  0  0
    3.4982    1.2634    1.2151 C   0  0  0  0  0  0  0  0  0  0  0  0
    1.1569   -0.0635   -0.0744 N   0  0  0  0  0  0  0  0  0  0  0  0
   -0.1375    0.0136   -0.4823 C   0  0  0  0  0  0  0  0  0  0  0  0
   -3.4414   -0.7745    0.4943 N   0  0  0  0  0  0  0  0  0  0  0  0
   -4.7667   -0.6605    0.2004 C   0  0  0  0  0  0  0  0  0  0  0  0
   -5.7135   -0.5528    1.2327 C   0  0  0  0  0  0  0  0  0  0  0  0
   -7.0715   -0.4245    0.9331 C   0  0  0  0  0  0  0  0  0  0  0  0
   -7.4967   -0.4011   -0.3962 C   0  0  0  0  0  0  0  0  0  0  0  0
   -6.5665   -0.5072   -1.4334 C   0  0  0  0  0  0  0  0  0  0  0  0
   -5.1934   -0.6390   -1.1461 C   0  0  0  0  0  0  0  0  0  0  0  0
   -4.2332   -0.7536   -2.1666 C   0  0  0  0  0  0  0  0  0  0  0  0
   -4.5930   -0.7289   -3.3768 O   0  0  0  0  0  0  0  0  0  0  0  0
  1  2  1  0
  2  3  4  0
  3  4  1  0
  4  5  4  0
  5  6  4  0
  6  7  4  0
  7  8  1  0
  8  9  1  0
  9 10  4  0
 10 11  4  0
 11 12  4  0
 12 13  1  0
 13 14  1  0
 14 15  1  0
 14 16  1  0
 14 17  1  0
 12 18  4  0
 18 19  4  0
  7 20  4  0
 20 21  4  0
  3 22  4  0
 22 23  4  0
 23 24  4  0
 24 25  4  0
 25 26  4  0
 26 27  4  0
 27 28  4  0
 28 29  4  0
 29 30  2  0
 19  9  4  0
 21  4  4  0
 28 23  4  0
 29  2  4  0
M  END
>  <SMILES>  (16) 
Cc4c(c2ccc(Oc1ccc(OC(F)(F)F)cc1)nc2)[nH]c3ccccc3c4=O

>  <NumConformers>  (16) 
32

>  <EnergyUnits>  (16) 
RDKit_forcefield

>  <Processing_Time>  (16) 
33.7s

>  <Original_Conformers>  (16) 
500

>  <Total_Conformers>  (16) 
32

>  <Energy>  (16) 
68.841274885258841

>  <Energy_Unit>  (16) 
RDKit_forcefield

>  <Rank>  (16) 
16

>  <Conformer_Index>  (16) 
15

$$$$
CK-3-22 (1T)
     RDKit          3D

 30 33  0  0  0  0  0  0  0  0999 V2000
   -1.6870    0.4956   -2.4293 C   0  0  0  0  0  0  0  0  0  0  0  0
   -2.7722   -0.0993   -1.5600 C   0  0  0  0  0  0  0  0  0  0  0  0
   -2.5661   -0.3315   -0.1773 C   0  0  0  0  0  0  0  0  0  0  0  0
   -1.2670   -0.0471    0.4755 C   0  0  0  0  0  0  0  0  0  0  0  0
   -0.0930   -0.6863    0.0546 C   0  0  0  0  0  0  0  0  0  0  0  0
    1.1170   -0.4186    0.6957 C   0  0  0  0  0  0  0  0  0  0  0  0
    1.1473    0.4946    1.7627 C   0  0  0  0  0  0  0  0  0  0  0  0
    2.3324    0.7887    2.4515 O   0  0  0  0  0  0  0  0  0  0  0  0
    3.6189    0.7920    1.8922 C   0  0  0  0  0  0  0  0  0  0  0  0
    3.8462    1.1415    0.5495 C   0  0  0  0  0  0  0  0  0  0  0  0
    5.1449    1.1487    0.0316 C   0  0  0  0  0  0  0  0  0  0  0  0
    6.2395    0.8181    0.8541 C   0  0  0  0  0  0  0  0  0  0  0  0
    7.5641    0.8063    0.3879 O   0  0  0  0  0  0  0  0  0  0  0  0
    7.9715    1.1143   -0.9435 C   0  0  0  0  0  0  0  0  0  0  0  0
    9.3448    0.9932   -1.0312 F   0  0  0  0  0  0  0  0  0  0  0  0
    7.3883    0.2333   -1.8365 F   0  0  0  0  0  0  0  0  0  0  0  0
    7.6173    2.4130   -1.2622 F   0  0  0  0  0  0  0  0  0  0  0  0
    6.0079    0.4902    2.1952 C   0  0  0  0  0  0  0  0  0  0  0  0
    4.7092    0.4837    2.7120 C   0  0  0  0  0  0  0  0  0  0  0  0
   -0.0107    1.0765    2.1752 N   0  0  0  0  0  0  0  0  0  0  0  0
   -1.2011    0.8296    1.5667 C   0  0  0  0  0  0  0  0  0  0  0  0
   -3.5830   -0.8253    0.5874 N   0  0  0  0  0  0  0  0  0  0  0  0
   -4.7966   -1.1484    0.0596 C   0  0  0  0  0  0  0  0  0  0  0  0
   -5.8115   -1.6642    0.8829 C   0  0  0  0  0  0  0  0  0  0  0  0
   -7.0525   -2.0065    0.3416 C   0  0  0  0  0  0  0  0  0  0  0  0
   -7.2918   -1.8393   -1.0233 C   0  0  0  0  0  0  0  0  0  0  0  0
   -6.2921   -1.3276   -1.8545 C   0  0  0  0  0  0  0  0  0  0  0  0
   -5.0358   -0.9762   -1.3220 C   0  0  0  0  0  0  0  0  0  0  0  0
   -4.0112   -0.4537   -2.1304 C   0  0  0  0  0  0  0  0  0  0  0  0
   -4.2019   -0.2994   -3.3692 O   0  0  0  0  0  0  0  0  0  0  0  0
  1  2  1  0
  2  3  4  0
  3  4  1  0
  4  5  4  0
  5  6  4  0
  6  7  4  0
  7  8  1  0
  8  9  1  0
  9 10  4  0
 10 11  4  0
 11 12  4  0
 12 13  1  0
 13 14  1  0
 14 15  1  0
 14 16  1  0
 14 17  1  0
 12 18  4  0
 18 19  4  0
  7 20  4  0
 20 21  4  0
  3 22  4  0
 22 23  4  0
 23 24  4  0
 24 25  4  0
 25 26  4  0
 26 27  4  0
 27 28  4  0
 28 29  4  0
 29 30  2  0
 19  9  4  0
 21  4  4  0
 28 23  4  0
 29  2  4  0
M  END
>  <SMILES>  (17) 
Cc4c(c2ccc(Oc1ccc(OC(F)(F)F)cc1)nc2)[nH]c3ccccc3c4=O

>  <NumConformers>  (17) 
32

>  <EnergyUnits>  (17) 
RDKit_forcefield

>  <Processing_Time>  (17) 
33.7s

>  <Original_Conformers>  (17) 
500

>  <Total_Conformers>  (17) 
32

>  <Energy>  (17) 
70.579544603040532

>  <Energy_Unit>  (17) 
RDKit_forcefield

>  <Rank>  (17) 
17

>  <Conformer_Index>  (17) 
16

$$$$
CK-3-22 (1T)
     RDKit          3D

 30 33  0  0  0  0  0  0  0  0999 V2000
   -1.4784   -0.6019   -2.5602 C   0  0  0  0  0  0  0  0  0  0  0  0
   -2.6667   -0.6543   -1.6262 C   0  0  0  0  0  0  0  0  0  0  0  0
   -2.4991   -0.6839   -0.2193 C   0  0  0  0  0  0  0  0  0  0  0  0
   -1.1583   -0.6190    0.4073 C   0  0  0  0  0  0  0  0  0  0  0  0
   -0.3147    0.4795    0.1936 C   0  0  0  0  0  0  0  0  0  0  0  0
    0.9367    0.5300    0.8088 C   0  0  0  0  0  0  0  0  0  0  0  0
    1.3416   -0.5270    1.6408 C   0  0  0  0  0  0  0  0  0  0  0  0
    2.5813   -0.5203    2.2954 O   0  0  0  0  0  0  0  0  0  0  0  0
    3.7563    0.0694    1.8060 C   0  0  0  0  0  0  0  0  0  0  0  0
    4.6953    0.5567    2.7207 C   0  0  0  0  0  0  0  0  0  0  0  0
    5.8846    1.1384    2.2725 C   0  0  0  0  0  0  0  0  0  0  0  0
    6.1611    1.2303    0.9033 C   0  0  0  0  0  0  0  0  0  0  0  0
    7.3701    1.8264    0.5096 O   0  0  0  0  0  0  0  0  0  0  0  0
    7.8035    1.9978   -0.8381 C   0  0  0  0  0  0  0  0  0  0  0  0
    9.0347    2.6244   -0.8366 F   0  0  0  0  0  0  0  0  0  0  0  0
    7.9300    0.7678   -1.4584 F   0  0  0  0  0  0  0  0  0  0  0  0
    6.9030    2.7860   -1.5321 F   0  0  0  0  0  0  0  0  0  0  0  0
    5.2261    0.7220   -0.0193 C   0  0  0  0  0  0  0  0  0  0  0  0
    4.0365    0.1407    0.4302 C   0  0  0  0  0  0  0  0  0  0  0  0
    0.4917   -1.5660    1.8600 N   0  0  0  0  0  0  0  0  0  0  0  0
   -0.7324   -1.6355    1.2726 C   0  0  0  0  0  0  0  0  0  0  0  0
   -3.5918   -0.7792    0.5929 N   0  0  0  0  0  0  0  0  0  0  0  0
   -4.8616   -0.8066    0.1004 C   0  0  0  0  0  0  0  0  0  0  0  0
   -5.9578   -0.8947    0.9747 C   0  0  0  0  0  0  0  0  0  0  0  0
   -7.2607   -0.9115    0.4722 C   0  0  0  0  0  0  0  0  0  0  0  0
   -7.4820   -0.8393   -0.9040 C   0  0  0  0  0  0  0  0  0  0  0  0
   -6.4016   -0.7512   -1.7857 C   0  0  0  0  0  0  0  0  0  0  0  0
   -5.0816   -0.7351   -1.2932 C   0  0  0  0  0  0  0  0  0  0  0  0
   -3.9733   -0.6529   -2.1542 C   0  0  0  0  0  0  0  0  0  0  0  0
   -4.1485   -0.5802   -3.4027 O   0  0  0  0  0  0  0  0  0  0  0  0
  1  2  1  0
  2  3  4  0
  3  4  1  0
  4  5  4  0
  5  6  4  0
  6  7  4  0
  7  8  1  0
  8  9  1  0
  9 10  4  0
 10 11  4  0
 11 12  4  0
 12 13  1  0
 13 14  1  0
 14 15  1  0
 14 16  1  0
 14 17  1  0
 12 18  4  0
 18 19  4  0
  7 20  4  0
 20 21  4  0
  3 22  4  0
 22 23  4  0
 23 24  4  0
 24 25  4  0
 25 26  4  0
 26 27  4  0
 27 28  4  0
 28 29  4  0
 29 30  2  0
 19  9  4  0
 21  4  4  0
 28 23  4  0
 29  2  4  0
M  END
>  <SMILES>  (18) 
Cc4c(c2ccc(Oc1ccc(OC(F)(F)F)cc1)nc2)[nH]c3ccccc3c4=O

>  <NumConformers>  (18) 
32

>  <EnergyUnits>  (18) 
RDKit_forcefield

>  <Processing_Time>  (18) 
33.7s

>  <Original_Conformers>  (18) 
500

>  <Total_Conformers>  (18) 
32

>  <Energy>  (18) 
70.579544604721036

>  <Energy_Unit>  (18) 
RDKit_forcefield

>  <Rank>  (18) 
18

>  <Conformer_Index>  (18) 
17

$$$$
CK-3-22 (1T)
     RDKit          3D

 30 33  0  0  0  0  0  0  0  0999 V2000
   -1.9496    0.5266   -2.5189 C   0  0  0  0  0  0  0  0  0  0  0  0
   -2.9615   -0.1028   -1.5877 C   0  0  0  0  0  0  0  0  0  0  0  0
   -2.6626   -0.3374   -0.2224 C   0  0  0  0  0  0  0  0  0  0  0  0
   -1.3330   -0.0216    0.3496 C   0  0  0  0  0  0  0  0  0  0  0  0
   -0.1711   -0.6261   -0.1492 C   0  0  0  0  0  0  0  0  0  0  0  0
    1.0693   -0.3295    0.4167 C   0  0  0  0  0  0  0  0  0  0  0  0
    1.1423    0.5778    1.4867 C   0  0  0  0  0  0  0  0  0  0  0  0
    2.3600    0.8997    2.1022 O   0  0  0  0  0  0  0  0  0  0  0  0
    3.6083    0.9414    1.4634 C   0  0  0  0  0  0  0  0  0  0  0  0
    3.7414    1.3048    0.1121 C   0  0  0  0  0  0  0  0  0  0  0  0
    5.0050    1.3501   -0.4837 C   0  0  0  0  0  0  0  0  0  0  0  0
    6.1537    1.0478    0.2570 C   0  0  0  0  0  0  0  0  0  0  0  0
    7.3968    1.1073   -0.3937 O   0  0  0  0  0  0  0  0  0  0  0  0
    8.6578    0.8315    0.2123 C   0  0  0  0  0  0  0  0  0  0  0  0
    9.6530    0.9887   -0.7327 F   0  0  0  0  0  0  0  0  0  0  0  0
    8.8890    1.7120    1.2539 F   0  0  0  0  0  0  0  0  0  0  0  0
    8.6879   -0.4703    0.6793 F   0  0  0  0  0  0  0  0  0  0  0  0
    6.0205    0.7028    1.6161 C   0  0  0  0  0  0  0  0  0  0  0  0
    4.7560    0.6581    2.2111 C   0  0  0  0  0  0  0  0  0  0  0  0
   -0.0026    1.1255    1.9756 N   0  0  0  0  0  0  0  0  0  0  0  0
   -1.2220    0.8500    1.4411 C   0  0  0  0  0  0  0  0  0  0  0  0
   -3.6156   -0.8633    0.6008 N   0  0  0  0  0  0  0  0  0  0  0  0
   -4.8510   -1.2162    0.1479 C   0  0  0  0  0  0  0  0  0  0  0  0
   -5.7977   -1.7643    1.0294 C   0  0  0  0  0  0  0  0  0  0  0  0
   -7.0608   -2.1372    0.5645 C   0  0  0  0  0  0  0  0  0  0  0  0
   -7.3901   -1.9684   -0.7813 C   0  0  0  0  0  0  0  0  0  0  0  0
   -6.4587   -1.4247   -1.6698 C   0  0  0  0  0  0  0  0  0  0  0  0
   -5.1813   -1.0424   -1.2146 C   0  0  0  0  0  0  0  0  0  0  0  0
   -4.2240   -0.4874   -2.0818 C   0  0  0  0  0  0  0  0  0  0  0  0
   -4.4965   -0.3309   -3.3050 O   0  0  0  0  0  0  0  0  0  0  0  0
  1  2  1  0
  2  3  4  0
  3  4  1  0
  4  5  4  0
  5  6  4  0
  6  7  4  0
  7  8  1  0
  8  9  1  0
  9 10  4  0
 10 11  4  0
 11 12  4  0
 12 13  1  0
 13 14  1  0
 14 15  1  0
 14 16  1  0
 14 17  1  0
 12 18  4  0
 18 19  4  0
  7 20  4  0
 20 21  4  0
  3 22  4  0
 22 23  4  0
 23 24  4  0
 24 25  4  0
 25 26  4  0
 26 27  4  0
 27 28  4  0
 28 29  4  0
 29 30  2  0
 19  9  4  0
 21  4  4  0
 28 23  4  0
 29  2  4  0
M  END
>  <SMILES>  (19) 
Cc4c(c2ccc(Oc1ccc(OC(F)(F)F)cc1)nc2)[nH]c3ccccc3c4=O

>  <NumConformers>  (19) 
32

>  <EnergyUnits>  (19) 
RDKit_forcefield

>  <Processing_Time>  (19) 
33.7s

>  <Original_Conformers>  (19) 
500

>  <Total_Conformers>  (19) 
32

>  <Energy>  (19) 
70.594820441486732

>  <Energy_Unit>  (19) 
RDKit_forcefield

>  <Rank>  (19) 
19

>  <Conformer_Index>  (19) 
18

$$$$
CK-3-22 (1T)
     RDKit          3D

 30 33  0  0  0  0  0  0  0  0999 V2000
   -1.7606   -0.4487   -2.6869 C   0  0  0  0  0  0  0  0  0  0  0  0
   -2.8717   -0.5667   -1.6676 C   0  0  0  0  0  0  0  0  0  0  0  0
   -2.5935   -0.6936   -0.2838 C   0  0  0  0  0  0  0  0  0  0  0  0
   -1.2071   -0.6714    0.2376 C   0  0  0  0  0  0  0  0  0  0  0  0
   -0.3777    0.4399    0.0344 C   0  0  0  0  0  0  0  0  0  0  0  0
    0.9185    0.4484    0.5507 C   0  0  0  0  0  0  0  0  0  0  0  0
    1.3828   -0.6634    1.2730 C   0  0  0  0  0  0  0  0  0  0  0  0
    2.6703   -0.7012    1.8265 O   0  0  0  0  0  0  0  0  0  0  0  0
    3.8059   -0.0781    1.2878 C   0  0  0  0  0  0  0  0  0  0  0  0
    3.9771    0.0888   -0.0974 C   0  0  0  0  0  0  0  0  0  0  0  0
    5.1308    0.7004   -0.5956 C   0  0  0  0  0  0  0  0  0  0  0  0
    6.1353    1.1427    0.2733 C   0  0  0  0  0  0  0  0  0  0  0  0
    7.2718    1.7522   -0.2826 O   0  0  0  0  0  0  0  0  0  0  0  0
    8.3818    2.2556    0.4576 C   0  0  0  0  0  0  0  0  0  0  0  0
    9.3049    2.7847   -0.4233 F   0  0  0  0  0  0  0  0  0  0  0  0
    7.9662    3.2537    1.3207 F   0  0  0  0  0  0  0  0  0  0  0  0
    8.9817    1.2338    1.1716 F   0  0  0  0  0  0  0  0  0  0  0  0
    5.9712    0.9573    1.6599 C   0  0  0  0  0  0  0  0  0  0  0  0
    4.8166    0.3450    2.1572 C   0  0  0  0  0  0  0  0  0  0  0  0
    0.5480   -1.7157    1.4863 N   0  0  0  0  0  0  0  0  0  0  0  0
   -0.7190   -1.7452    0.9941 C   0  0  0  0  0  0  0  0  0  0  0  0
   -3.6190   -0.8458    0.6038 N   0  0  0  0  0  0  0  0  0  0  0  0
   -4.9239   -0.8398    0.2127 C   0  0  0  0  0  0  0  0  0  0  0  0
   -5.9480   -0.9891    1.1629 C   0  0  0  0  0  0  0  0  0  0  0  0
   -7.2866   -0.9719    0.7652 C   0  0  0  0  0  0  0  0  0  0  0  0
   -7.6156   -0.8046   -0.5809 C   0  0  0  0  0  0  0  0  0  0  0  0
   -6.6079   -0.6548   -1.5372 C   0  0  0  0  0  0  0  0  0  0  0  0
   -5.2531   -0.6720   -1.1508 C   0  0  0  0  0  0  0  0  0  0  0  0
   -4.2159   -0.5295   -2.0891 C   0  0  0  0  0  0  0  0  0  0  0  0
   -4.4889   -0.3705   -3.3118 O   0  0  0  0  0  0  0  0  0  0  0  0
  1  2  1  0
  2  3  4  0
  3  4  1  0
  4  5  4  0
  5  6  4  0
  6  7  4  0
  7  8  1  0
  8  9  1  0
  9 10  4  0
 10 11  4  0
 11 12  4  0
 12 13  1  0
 13 14  1  0
 14 15  1  0
 14 16  1  0
 14 17  1  0
 12 18  4  0
 18 19  4  0
  7 20  4  0
 20 21  4  0
  3 22  4  0
 22 23  4  0
 23 24  4  0
 24 25  4  0
 25 26  4  0
 26 27  4  0
 27 28  4  0
 28 29  4  0
 29 30  2  0
 19  9  4  0
 21  4  4  0
 28 23  4  0
 29  2  4  0
M  END
>  <SMILES>  (20) 
Cc4c(c2ccc(Oc1ccc(OC(F)(F)F)cc1)nc2)[nH]c3ccccc3c4=O

>  <NumConformers>  (20) 
32

>  <EnergyUnits>  (20) 
RDKit_forcefield

>  <Processing_Time>  (20) 
33.7s

>  <Original_Conformers>  (20) 
500

>  <Total_Conformers>  (20) 
32

>  <Energy>  (20) 
70.59482044407757

>  <Energy_Unit>  (20) 
RDKit_forcefield

>  <Rank>  (20) 
20

>  <Conformer_Index>  (20) 
19

$$$$
CK-3-22 (1T)
     RDKit          3D

 30 33  0  0  0  0  0  0  0  0999 V2000
   -1.8805   -1.5885   -2.8300 C   0  0  0  0  0  0  0  0  0  0  0  0
   -2.8634   -1.1442   -1.7700 C   0  0  0  0  0  0  0  0  0  0  0  0
   -2.4418   -0.8490   -0.4497 C   0  0  0  0  0  0  0  0  0  0  0  0
   -1.0295   -1.0030   -0.0298 C   0  0  0  0  0  0  0  0  0  0  0  0
   -0.3263    0.0879    0.4959 C   0  0  0  0  0  0  0  0  0  0  0  0
    0.9976   -0.0668    0.9091 C   0  0  0  0  0  0  0  0  0  0  0  0
    1.6162   -1.3227    0.7934 C   0  0  0  0  0  0  0  0  0  0  0  0
    2.9381   -1.5377    1.2077 O   0  0  0  0  0  0  0  0  0  0  0  0
    3.9677   -0.5857    1.1692 C   0  0  0  0  0  0  0  0  0  0  0  0
    4.0225    0.4123    0.1806 C   0  0  0  0  0  0  0  0  0  0  0  0
    5.0735    1.3343    0.1650 C   0  0  0  0  0  0  0  0  0  0  0  0
    6.0946    1.2638    1.1327 C   0  0  0  0  0  0  0  0  0  0  0  0
    7.1722    2.1636    1.1671 O   0  0  0  0  0  0  0  0  0  0  0  0
    7.3737    3.2429    0.2571 C   0  0  0  0  0  0  0  0  0  0  0  0
    8.5322    3.9107    0.6035 F   0  0  0  0  0  0  0  0  0  0  0  0
    7.5058    2.7606   -1.0327 F   0  0  0  0  0  0  0  0  0  0  0  0
    6.3121    4.1274    0.3239 F   0  0  0  0  0  0  0  0  0  0  0  0
    6.0442    0.2556    2.1025 C   0  0  0  0  0  0  0  0  0  0  0  0
    4.9932   -0.6659    2.1167 C   0  0  0  0  0  0  0  0  0  0  0  0
    0.9022   -2.3756    0.3123 N   0  0  0  0  0  0  0  0  0  0  0  0
   -0.3881   -2.2482   -0.0965 C   0  0  0  0  0  0  0  0  0  0  0  0
   -3.3477   -0.4046    0.4692 N   0  0  0  0  0  0  0  0  0  0  0  0
   -4.6713   -0.2696    0.1764 C   0  0  0  0  0  0  0  0  0  0  0  0
   -5.5704    0.1815    1.1572 C   0  0  0  0  0  0  0  0  0  0  0  0
   -6.9294    0.3099    0.8621 C   0  0  0  0  0  0  0  0  0  0  0  0
   -7.4034   -0.0112   -0.4108 C   0  0  0  0  0  0  0  0  0  0  0  0
   -6.5211   -0.4611   -1.3964 C   0  0  0  0  0  0  0  0  0  0  0  0
   -5.1471   -0.5938   -1.1136 C   0  0  0  0  0  0  0  0  0  0  0  0
   -4.2330   -1.0382   -2.0848 C   0  0  0  0  0  0  0  0  0  0  0  0
   -4.6390   -1.3406   -3.2417 O   0  0  0  0  0  0  0  0  0  0  0  0
  1  2  1  0
  2  3  4  0
  3  4  1  0
  4  5  4  0
  5  6  4  0
  6  7  4  0
  7  8  1  0
  8  9  1  0
  9 10  4  0
 10 11  4  0
 11 12  4  0
 12 13  1  0
 13 14  1  0
 14 15  1  0
 14 16  1  0
 14 17  1  0
 12 18  4  0
 18 19  4  0
  7 20  4  0
 20 21  4  0
  3 22  4  0
 22 23  4  0
 23 24  4  0
 24 25  4  0
 25 26  4  0
 26 27  4  0
 27 28  4  0
 28 29  4  0
 29 30  2  0
 19  9  4  0
 21  4  4  0
 28 23  4  0
 29  2  4  0
M  END
>  <SMILES>  (21) 
Cc4c(c2ccc(Oc1ccc(OC(F)(F)F)cc1)nc2)[nH]c3ccccc3c4=O

>  <NumConformers>  (21) 
32

>  <EnergyUnits>  (21) 
RDKit_forcefield

>  <Processing_Time>  (21) 
33.7s

>  <Original_Conformers>  (21) 
500

>  <Total_Conformers>  (21) 
32

>  <Energy>  (21) 
70.644252680580621

>  <Energy_Unit>  (21) 
RDKit_forcefield

>  <Rank>  (21) 
21

>  <Conformer_Index>  (21) 
20

$$$$
CK-3-22 (1T)
     RDKit          3D

 30 33  0  0  0  0  0  0  0  0999 V2000
   -1.8047   -3.0432   -1.3018 C   0  0  0  0  0  0  0  0  0  0  0  0
   -2.8182   -2.0121   -0.8583 C   0  0  0  0  0  0  0  0  0  0  0  0
   -2.4516   -0.6594   -0.6489 C   0  0  0  0  0  0  0  0  0  0  0  0
   -1.0724   -0.1785   -0.8959 C   0  0  0  0  0  0  0  0  0  0  0  0
   -0.3444    0.4356    0.1306 C   0  0  0  0  0  0  0  0  0  0  0  0
    0.9470    0.9055   -0.1122 C   0  0  0  0  0  0  0  0  0  0  0  0
    1.5079    0.7573   -1.3916 C   0  0  0  0  0  0  0  0  0  0  0  0
    2.7943    1.2251   -1.6945 O   0  0  0  0  0  0  0  0  0  0  0  0
    3.8703    1.2856   -0.7965 C   0  0  0  0  0  0  0  0  0  0  0  0
    4.8400    2.2774   -0.9750 C   0  0  0  0  0  0  0  0  0  0  0  0
    5.9345    2.3616   -0.1098 C   0  0  0  0  0  0  0  0  0  0  0  0
    6.0850    1.4475    0.9397 C   0  0  0  0  0  0  0  0  0  0  0  0
    7.2025    1.5805    1.7797 O   0  0  0  0  0  0  0  0  0  0  0  0
    7.5041    0.7371    2.8893 C   0  0  0  0  0  0  0  0  0  0  0  0
    6.4856    0.7957    3.8236 F   0  0  0  0  0  0  0  0  0  0  0  0
    8.6747    1.1735    3.4788 F   0  0  0  0  0  0  0  0  0  0  0  0
    7.6791   -0.5673    2.4630 F   0  0  0  0  0  0  0  0  0  0  0  0
    5.1203    0.4354    1.1093 C   0  0  0  0  0  0  0  0  0  0  0  0
    4.0256    0.3524    0.2434 C   0  0  0  0  0  0  0  0  0  0  0  0
    0.7687    0.1891   -2.3818 N   0  0  0  0  0  0  0  0  0  0  0  0
   -0.4907   -0.2761   -2.1681 C   0  0  0  0  0  0  0  0  0  0  0  0
   -3.3810    0.2349   -0.2025 N   0  0  0  0  0  0  0  0  0  0  0  0
   -4.6793   -0.1158    0.0149 C   0  0  0  0  0  0  0  0  0  0  0  0
   -5.6047    0.8408    0.4646 C   0  0  0  0  0  0  0  0  0  0  0  0
   -6.9385    0.4857    0.6773 C   0  0  0  0  0  0  0  0  0  0  0  0
   -7.3611   -0.8237    0.4427 C   0  0  0  0  0  0  0  0  0  0  0  0
   -6.4521   -1.7858   -0.0048 C   0  0  0  0  0  0  0  0  0  0  0  0
   -5.1030   -1.4425   -0.2220 C   0  0  0  0  0  0  0  0  0  0  0  0
   -4.1627   -2.3885   -0.6664 C   0  0  0  0  0  0  0  0  0  0  0  0
   -4.5225   -3.5778   -0.8916 O   0  0  0  0  0  0  0  0  0  0  0  0
  1  2  1  0
  2  3  4  0
  3  4  1  0
  4  5  4  0
  5  6  4  0
  6  7  4  0
  7  8  1  0
  8  9  1  0
  9 10  4  0
 10 11  4  0
 11 12  4  0
 12 13  1  0
 13 14  1  0
 14 15  1  0
 14 16  1  0
 14 17  1  0
 12 18  4  0
 18 19  4  0
  7 20  4  0
 20 21  4  0
  3 22  4  0
 22 23  4  0
 23 24  4  0
 24 25  4  0
 25 26  4  0
 26 27  4  0
 27 28  4  0
 28 29  4  0
 29 30  2  0
 19  9  4  0
 21  4  4  0
 28 23  4  0
 29  2  4  0
M  END
>  <SMILES>  (22) 
Cc4c(c2ccc(Oc1ccc(OC(F)(F)F)cc1)nc2)[nH]c3ccccc3c4=O

>  <NumConformers>  (22) 
32

>  <EnergyUnits>  (22) 
RDKit_forcefield

>  <Processing_Time>  (22) 
33.7s

>  <Original_Conformers>  (22) 
500

>  <Total_Conformers>  (22) 
32

>  <Energy>  (22) 
70.644252709567596

>  <Energy_Unit>  (22) 
RDKit_forcefield

>  <Rank>  (22) 
22

>  <Conformer_Index>  (22) 
21

$$$$
CK-3-22 (1T)
     RDKit          3D

 30 33  0  0  0  0  0  0  0  0999 V2000
   -1.9803   -3.0334   -1.4976 C   0  0  0  0  0  0  0  0  0  0  0  0
   -2.9622   -1.9983   -0.9962 C   0  0  0  0  0  0  0  0  0  0  0  0
   -2.5451   -0.6855   -0.6636 C   0  0  0  0  0  0  0  0  0  0  0  0
   -1.1398   -0.2481   -0.8318 C   0  0  0  0  0  0  0  0  0  0  0  0
   -0.4182    0.2454    0.2622 C   0  0  0  0  0  0  0  0  0  0  0  0
    0.8987    0.6755    0.0949 C   0  0  0  0  0  0  0  0  0  0  0  0
    1.4918    0.6091   -1.1768 C   0  0  0  0  0  0  0  0  0  0  0  0
    2.8056    1.0425   -1.4043 O   0  0  0  0  0  0  0  0  0  0  0  0
    3.8552    0.9799   -0.4758 C   0  0  0  0  0  0  0  0  0  0  0  0
    3.9389   -0.0422    0.4855 C   0  0  0  0  0  0  0  0  0  0  0  0
    5.0098   -0.0789    1.3829 C   0  0  0  0  0  0  0  0  0  0  0  0
    6.0181    0.8908    1.3298 C   0  0  0  0  0  0  0  0  0  0  0  0
    7.0689    0.8061    2.2575 O   0  0  0  0  0  0  0  0  0  0  0  0
    8.1703    1.7081    2.3392 C   0  0  0  0  0  0  0  0  0  0  0  0
    8.8901    1.6901    1.1579 F   0  0  0  0  0  0  0  0  0  0  0  0
    8.9985    1.3118    3.3712 F   0  0  0  0  0  0  0  0  0  0  0  0
    7.7187    2.9901    2.5972 F   0  0  0  0  0  0  0  0  0  0  0  0
    5.9430    1.9032    0.3534 C   0  0  0  0  0  0  0  0  0  0  0  0
    4.8714    1.9386   -0.5441 C   0  0  0  0  0  0  0  0  0  0  0  0
    0.7600    0.1588   -2.2310 N   0  0  0  0  0  0  0  0  0  0  0  0
   -0.5240   -0.2656   -2.0915 C   0  0  0  0  0  0  0  0  0  0  0  0
   -3.4490    0.2094   -0.1687 N   0  0  0  0  0  0  0  0  0  0  0  0
   -4.7670   -0.0996   -0.0168 C   0  0  0  0  0  0  0  0  0  0  0  0
   -5.6644    0.8569    0.4869 C   0  0  0  0  0  0  0  0  0  0  0  0
   -7.0180    0.5456    0.6327 C   0  0  0  0  0  0  0  0  0  0  0  0
   -7.4884   -0.7195    0.2770 C   0  0  0  0  0  0  0  0  0  0  0  0
   -6.6077   -1.6809   -0.2253 C   0  0  0  0  0  0  0  0  0  0  0  0
   -5.2392   -1.3816   -0.3762 C   0  0  0  0  0  0  0  0  0  0  0  0
   -4.3267   -2.3286   -0.8732 C   0  0  0  0  0  0  0  0  0  0  0  0
   -4.7296   -3.4777   -1.2077 O   0  0  0  0  0  0  0  0  0  0  0  0
  1  2  1  0
  2  3  4  0
  3  4  1  0
  4  5  4  0
  5  6  4  0
  6  7  4  0
  7  8  1  0
  8  9  1  0
  9 10  4  0
 10 11  4  0
 11 12  4  0
 12 13  1  0
 13 14  1  0
 14 15  1  0
 14 16  1  0
 14 17  1  0
 12 18  4  0
 18 19  4  0
  7 20  4  0
 20 21  4  0
  3 22  4  0
 22 23  4  0
 23 24  4  0
 24 25  4  0
 25 26  4  0
 26 27  4  0
 27 28  4  0
 28 29  4  0
 29 30  2  0
 19  9  4  0
 21  4  4  0
 28 23  4  0
 29  2  4  0
M  END
>  <SMILES>  (23) 
Cc4c(c2ccc(Oc1ccc(OC(F)(F)F)cc1)nc2)[nH]c3ccccc3c4=O

>  <NumConformers>  (23) 
32

>  <EnergyUnits>  (23) 
RDKit_forcefield

>  <Processing_Time>  (23) 
33.7s

>  <Original_Conformers>  (23) 
500

>  <Total_Conformers>  (23) 
32

>  <Energy>  (23) 
70.65818581100298

>  <Energy_Unit>  (23) 
RDKit_forcefield

>  <Rank>  (23) 
23

>  <Conformer_Index>  (23) 
22

$$$$
CK-3-22 (1T)
     RDKit          3D

 30 33  0  0  0  0  0  0  0  0999 V2000
   -2.0167   -1.9754   -2.7002 C   0  0  0  0  0  0  0  0  0  0  0  0
   -2.9837   -1.3756   -1.7040 C   0  0  0  0  0  0  0  0  0  0  0  0
   -2.5389   -0.8654   -0.4590 C   0  0  0  0  0  0  0  0  0  0  0  0
   -1.1162   -0.9340   -0.0521 C   0  0  0  0  0  0  0  0  0  0  0  0
   -0.4179    0.2353    0.2737 C   0  0  0  0  0  0  0  0  0  0  0  0
    0.9163    0.1640    0.6763 C   0  0  0  0  0  0  0  0  0  0  0  0
    1.5503   -1.0874    0.7514 C   0  0  0  0  0  0  0  0  0  0  0  0
    2.8835   -1.2180    1.1650 O   0  0  0  0  0  0  0  0  0  0  0  0
    3.8985   -0.2739    0.9493 C   0  0  0  0  0  0  0  0  0  0  0  0
    3.9185    0.5509   -0.1887 C   0  0  0  0  0  0  0  0  0  0  0  0
    4.9565    1.4681   -0.3754 C   0  0  0  0  0  0  0  0  0  0  0  0
    5.9947    1.5696    0.5581 C   0  0  0  0  0  0  0  0  0  0  0  0
    7.0102    2.5101    0.3207 O   0  0  0  0  0  0  0  0  0  0  0  0
    8.1347    2.7395    1.1669 C   0  0  0  0  0  0  0  0  0  0  0  0
    8.9149    3.7369    0.6148 F   0  0  0  0  0  0  0  0  0  0  0  0
    7.7134    3.1455    2.4204 F   0  0  0  0  0  0  0  0  0  0  0  0
    8.8936    1.5878    1.2742 F   0  0  0  0  0  0  0  0  0  0  0  0
    5.9835    0.7289    1.6882 C   0  0  0  0  0  0  0  0  0  0  0  0
    4.9447   -0.1885    1.8737 C   0  0  0  0  0  0  0  0  0  0  0  0
    0.8418   -2.2120    0.4637 N   0  0  0  0  0  0  0  0  0  0  0  0
   -0.4584   -2.1665    0.0692 C   0  0  0  0  0  0  0  0  0  0  0  0
   -3.4318   -0.2876    0.3962 N   0  0  0  0  0  0  0  0  0  0  0  0
   -4.7630   -0.2161    0.1157 C   0  0  0  0  0  0  0  0  0  0  0  0
   -5.6479    0.3784    1.0307 C   0  0  0  0  0  0  0  0  0  0  0  0
   -7.0144    0.4425    0.7499 C   0  0  0  0  0  0  0  0  0  0  0  0
   -7.5102   -0.0860   -0.4430 C   0  0  0  0  0  0  0  0  0  0  0  0
   -6.6422   -0.6804   -1.3625 C   0  0  0  0  0  0  0  0  0  0  0  0
   -5.2609   -0.7506   -1.0935 C   0  0  0  0  0  0  0  0  0  0  0  0
   -4.3609   -1.3369   -2.0004 C   0  0  0  0  0  0  0  0  0  0  0  0
   -4.7865   -1.8275   -3.0834 O   0  0  0  0  0  0  0  0  0  0  0  0
  1  2  1  0
  2  3  4  0
  3  4  1  0
  4  5  4  0
  5  6  4  0
  6  7  4  0
  7  8  1  0
  8  9  1  0
  9 10  4  0
 10 11  4  0
 11 12  4  0
 12 13  1  0
 13 14  1  0
 14 15  1  0
 14 16  1  0
 14 17  1  0
 12 18  4  0
 18 19  4  0
  7 20  4  0
 20 21  4  0
  3 22  4  0
 22 23  4  0
 23 24  4  0
 24 25  4  0
 25 26  4  0
 26 27  4  0
 27 28  4  0
 28 29  4  0
 29 30  2  0
 19  9  4  0
 21  4  4  0
 28 23  4  0
 29  2  4  0
M  END
>  <SMILES>  (24) 
Cc4c(c2ccc(Oc1ccc(OC(F)(F)F)cc1)nc2)[nH]c3ccccc3c4=O

>  <NumConformers>  (24) 
32

>  <EnergyUnits>  (24) 
RDKit_forcefield

>  <Processing_Time>  (24) 
33.7s

>  <Original_Conformers>  (24) 
500

>  <Total_Conformers>  (24) 
32

>  <Energy>  (24) 
70.658185811798376

>  <Energy_Unit>  (24) 
RDKit_forcefield

>  <Rank>  (24) 
24

>  <Conformer_Index>  (24) 
23

$$$$
CK-3-22 (1T)
     RDKit          3D

 30 33  0  0  0  0  0  0  0  0999 V2000
   -1.9349   -2.0107   -2.6858 C   0  0  0  0  0  0  0  0  0  0  0  0
   -2.8815   -1.3393   -1.7161 C   0  0  0  0  0  0  0  0  0  0  0  0
   -2.4479   -0.9135   -0.4358 C   0  0  0  0  0  0  0  0  0  0  0  0
   -1.0398   -1.0614   -0.0001 C   0  0  0  0  0  0  0  0  0  0  0  0
    0.0029   -0.4463   -0.7061 C   0  0  0  0  0  0  0  0  0  0  0  0
    1.3203   -0.5831   -0.2670 C   0  0  0  0  0  0  0  0  0  0  0  0
    1.5879   -1.3197    0.8989 C   0  0  0  0  0  0  0  0  0  0  0  0
    2.8938   -1.5048    1.3744 O   0  0  0  0  0  0  0  0  0  0  0  0
    3.9483   -0.5905    1.2335 C   0  0  0  0  0  0  0  0  0  0  0  0
    5.2565   -1.0794    1.1589 C   0  0  0  0  0  0  0  0  0  0  0  0
    6.3351   -0.1994    1.0326 C   0  0  0  0  0  0  0  0  0  0  0  0
    6.1251    1.1840    0.9926 C   0  0  0  0  0  0  0  0  0  0  0  0
    7.2450    2.0212    0.8622 O   0  0  0  0  0  0  0  0  0  0  0  0
    7.2067    3.4455    0.8062 C   0  0  0  0  0  0  0  0  0  0  0  0
    8.4958    3.9235    0.6715 F   0  0  0  0  0  0  0  0  0  0  0  0
    6.4614    3.8601   -0.2830 F   0  0  0  0  0  0  0  0  0  0  0  0
    6.6622    3.9541    1.9718 F   0  0  0  0  0  0  0  0  0  0  0  0
    4.8101    1.6796    1.0879 C   0  0  0  0  0  0  0  0  0  0  0  0
    3.7319    0.7984    1.2138 C   0  0  0  0  0  0  0  0  0  0  0  0
    0.5596   -1.9090    1.5660 N   0  0  0  0  0  0  0  0  0  0  0  0
   -0.7311   -1.7912    1.1554 C   0  0  0  0  0  0  0  0  0  0  0  0
   -3.3405   -0.3551    0.4325 N   0  0  0  0  0  0  0  0  0  0  0  0
   -4.6450   -0.1484    0.0988 C   0  0  0  0  0  0  0  0  0  0  0  0
   -5.5264    0.4401    1.0210 C   0  0  0  0  0  0  0  0  0  0  0  0
   -6.8614    0.6631    0.6767 C   0  0  0  0  0  0  0  0  0  0  0  0
   -7.3282    0.3033   -0.5885 C   0  0  0  0  0  0  0  0  0  0  0  0
   -6.4632   -0.2828   -1.5162 C   0  0  0  0  0  0  0  0  0  0  0  0
   -5.1143   -0.5154   -1.1821 C   0  0  0  0  0  0  0  0  0  0  0  0
   -4.2202   -1.1083   -2.0907 C   0  0  0  0  0  0  0  0  0  0  0  0
   -4.6178   -1.4368   -3.2435 O   0  0  0  0  0  0  0  0  0  0  0  0
  1  2  1  0
  2  3  4  0
  3  4  1  0
  4  5  4  0
  5  6  4  0
  6  7  4  0
  7  8  1  0
  8  9  1  0
  9 10  4  0
 10 11  4  0
 11 12  4  0
 12 13  1  0
 13 14  1  0
 14 15  1  0
 14 16  1  0
 14 17  1  0
 12 18  4  0
 18 19  4  0
  7 20  4  0
 20 21  4  0
  3 22  4  0
 22 23  4  0
 23 24  4  0
 24 25  4  0
 25 26  4  0
 26 27  4  0
 27 28  4  0
 28 29  4  0
 29 30  2  0
 19  9  4  0
 21  4  4  0
 28 23  4  0
 29  2  4  0
M  END
>  <SMILES>  (25) 
Cc4c(c2ccc(Oc1ccc(OC(F)(F)F)cc1)nc2)[nH]c3ccccc3c4=O

>  <NumConformers>  (25) 
32

>  <EnergyUnits>  (25) 
RDKit_forcefield

>  <Processing_Time>  (25) 
33.7s

>  <Original_Conformers>  (25) 
500

>  <Total_Conformers>  (25) 
32

>  <Energy>  (25) 
70.665004303368306

>  <Energy_Unit>  (25) 
RDKit_forcefield

>  <Rank>  (25) 
25

>  <Conformer_Index>  (25) 
24

$$$$
CK-3-22 (1T)
     RDKit          3D

 30 33  0  0  0  0  0  0  0  0999 V2000
   -2.0508   -3.2529   -0.5803 C   0  0  0  0  0  0  0  0  0  0  0  0
   -2.9464   -2.0351   -0.5368 C   0  0  0  0  0  0  0  0  0  0  0  0
   -2.4309   -0.7314   -0.7444 C   0  0  0  0  0  0  0  0  0  0  0  0
   -0.9866   -0.4903   -0.9681 C   0  0  0  0  0  0  0  0  0  0  0  0
   -0.0355   -0.8588   -0.0069 C   0  0  0  0  0  0  0  0  0  0  0  0
    1.3183   -0.6049   -0.2300 C   0  0  0  0  0  0  0  0  0  0  0  0
    1.7151    0.0434   -1.4114 C   0  0  0  0  0  0  0  0  0  0  0  0
    3.0627    0.3062   -1.6951 O   0  0  0  0  0  0  0  0  0  0  0  0
    4.0571    0.5756   -0.7430 C   0  0  0  0  0  0  0  0  0  0  0  0
    5.3768    0.2106   -1.0275 C   0  0  0  0  0  0  0  0  0  0  0  0
    6.3980    0.4750   -0.1105 C   0  0  0  0  0  0  0  0  0  0  0  0
    6.1192    1.1207    1.0998 C   0  0  0  0  0  0  0  0  0  0  0  0
    7.1833    1.3589    1.9848 O   0  0  0  0  0  0  0  0  0  0  0  0
    7.0721    2.0021    3.2526 C   0  0  0  0  0  0  0  0  0  0  0  0
    6.2215    1.2876    4.0770 F   0  0  0  0  0  0  0  0  0  0  0  0
    6.6005    3.2928    3.0927 F   0  0  0  0  0  0  0  0  0  0  0  0
    8.3214    2.0543    3.8397 F   0  0  0  0  0  0  0  0  0  0  0  0
    4.7941    1.5074    1.3798 C   0  0  0  0  0  0  0  0  0  0  0  0
    3.7733    1.2420    0.4618 C   0  0  0  0  0  0  0  0  0  0  0  0
    0.7740    0.3898   -2.3302 N   0  0  0  0  0  0  0  0  0  0  0  0
   -0.5500    0.1503   -2.1353 C   0  0  0  0  0  0  0  0  0  0  0  0
   -3.2756    0.3405   -0.7464 N   0  0  0  0  0  0  0  0  0  0  0  0
   -4.6114    0.2120   -0.5119 C   0  0  0  0  0  0  0  0  0  0  0  0
   -5.4420    1.3450   -0.5126 C   0  0  0  0  0  0  0  0  0  0  0  0
   -6.8098    1.2165   -0.2612 C   0  0  0  0  0  0  0  0  0  0  0  0
   -7.3603   -0.0405   -0.0059 C   0  0  0  0  0  0  0  0  0  0  0  0
   -6.5465   -1.1763   -0.0018 C   0  0  0  0  0  0  0  0  0  0  0  0
   -5.1653   -1.0621   -0.2555 C   0  0  0  0  0  0  0  0  0  0  0  0
   -4.3208   -2.1860   -0.2642 C   0  0  0  0  0  0  0  0  0  0  0  0
   -4.7946   -3.3329   -0.0299 O   0  0  0  0  0  0  0  0  0  0  0  0
  1  2  1  0
  2  3  4  0
  3  4  1  0
  4  5  4  0
  5  6  4  0
  6  7  4  0
  7  8  1  0
  8  9  1  0
  9 10  4  0
 10 11  4  0
 11 12  4  0
 12 13  1  0
 13 14  1  0
 14 15  1  0
 14 16  1  0
 14 17  1  0
 12 18  4  0
 18 19  4  0
  7 20  4  0
 20 21  4  0
  3 22  4  0
 22 23  4  0
 23 24  4  0
 24 25  4  0
 25 26  4  0
 26 27  4  0
 27 28  4  0
 28 29  4  0
 29 30  2  0
 19  9  4  0
 21  4  4  0
 28 23  4  0
 29  2  4  0
M  END
>  <SMILES>  (26) 
Cc4c(c2ccc(Oc1ccc(OC(F)(F)F)cc1)nc2)[nH]c3ccccc3c4=O

>  <NumConformers>  (26) 
32

>  <EnergyUnits>  (26) 
RDKit_forcefield

>  <Processing_Time>  (26) 
33.7s

>  <Original_Conformers>  (26) 
500

>  <Total_Conformers>  (26) 
32

>  <Energy>  (26) 
70.665004319983353

>  <Energy_Unit>  (26) 
RDKit_forcefield

>  <Rank>  (26) 
26

>  <Conformer_Index>  (26) 
25

$$$$
CK-3-22 (1T)
     RDKit          3D

 30 33  0  0  0  0  0  0  0  0999 V2000
   -2.0745   -3.2366   -0.4791 C   0  0  0  0  0  0  0  0  0  0  0  0
   -3.0101   -2.0493   -0.5239 C   0  0  0  0  0  0  0  0  0  0  0  0
   -2.5254   -0.7347   -0.7369 C   0  0  0  0  0  0  0  0  0  0  0  0
   -1.0787   -0.4505   -0.8801 C   0  0  0  0  0  0  0  0  0  0  0  0
   -0.1766   -0.7610    0.1465 C   0  0  0  0  0  0  0  0  0  0  0  0
    1.1793   -0.4671   -0.0019 C   0  0  0  0  0  0  0  0  0  0  0  0
    1.6262    0.1631   -1.1752 C   0  0  0  0  0  0  0  0  0  0  0  0
    2.9794    0.4639   -1.3848 O   0  0  0  0  0  0  0  0  0  0  0  0
    3.9048    0.7920   -0.3828 C   0  0  0  0  0  0  0  0  0  0  0  0
    5.2507    0.4650   -0.5773 C   0  0  0  0  0  0  0  0  0  0  0  0
    6.2072    0.7876    0.3903 C   0  0  0  0  0  0  0  0  0  0  0  0
    5.8266    1.4594    1.5683 C   0  0  0  0  0  0  0  0  0  0  0  0
    6.7424    1.8072    2.5744 O   0  0  0  0  0  0  0  0  0  0  0  0
    8.1416    1.5336    2.5452 C   0  0  0  0  0  0  0  0  0  0  0  0
    8.3594    0.1692    2.4770 F   0  0  0  0  0  0  0  0  0  0  0  0
    8.7274    2.1599    1.4597 F   0  0  0  0  0  0  0  0  0  0  0  0
    8.7174    2.0190    3.7032 F   0  0  0  0  0  0  0  0  0  0  0  0
    4.4819    1.8030    1.7511 C   0  0  0  0  0  0  0  0  0  0  0  0
    3.5267    1.4797    0.7834 C   0  0  0  0  0  0  0  0  0  0  0  0
    0.7322    0.4530   -2.1583 N   0  0  0  0  0  0  0  0  0  0  0  0
   -0.5928    0.1737   -2.0366 C   0  0  0  0  0  0  0  0  0  0  0  0
   -3.4028    0.3073   -0.8200 N   0  0  0  0  0  0  0  0  0  0  0  0
   -4.7455    0.1396   -0.6626 C   0  0  0  0  0  0  0  0  0  0  0  0
   -5.6108    1.2432   -0.7454 C   0  0  0  0  0  0  0  0  0  0  0  0
   -6.9865    1.0748   -0.5731 C   0  0  0  0  0  0  0  0  0  0  0  0
   -7.5105   -0.1930   -0.3159 C   0  0  0  0  0  0  0  0  0  0  0  0
   -6.6621   -1.2999   -0.2308 C   0  0  0  0  0  0  0  0  0  0  0  0
   -5.2724   -1.1455   -0.4042 C   0  0  0  0  0  0  0  0  0  0  0  0
   -4.3929   -2.2397   -0.3303 C   0  0  0  0  0  0  0  0  0  0  0  0
   -4.8428   -3.3956   -0.0926 O   0  0  0  0  0  0  0  0  0  0  0  0
  1  2  1  0
  2  3  4  0
  3  4  1  0
  4  5  4  0
  5  6  4  0
  6  7  4  0
  7  8  1  0
  8  9  1  0
  9 10  4  0
 10 11  4  0
 11 12  4  0
 12 13  1  0
 13 14  1  0
 14 15  1  0
 14 16  1  0
 14 17  1  0
 12 18  4  0
 18 19  4  0
  7 20  4  0
 20 21  4  0
  3 22  4  0
 22 23  4  0
 23 24  4  0
 24 25  4  0
 25 26  4  0
 26 27  4  0
 27 28  4  0
 28 29  4  0
 29 30  2  0
 19  9  4  0
 21  4  4  0
 28 23  4  0
 29  2  4  0
M  END
>  <SMILES>  (27) 
Cc4c(c2ccc(Oc1ccc(OC(F)(F)F)cc1)nc2)[nH]c3ccccc3c4=O

>  <NumConformers>  (27) 
32

>  <EnergyUnits>  (27) 
RDKit_forcefield

>  <Processing_Time>  (27) 
33.7s

>  <Original_Conformers>  (27) 
500

>  <Total_Conformers>  (27) 
32

>  <Energy>  (27) 
70.678613620706471

>  <Energy_Unit>  (27) 
RDKit_forcefield

>  <Rank>  (27) 
27

>  <Conformer_Index>  (27) 
26

$$$$
CK-3-22 (1T)
     RDKit          3D

 30 33  0  0  0  0  0  0  0  0999 V2000
   -2.0071   -3.1651   -0.9773 C   0  0  0  0  0  0  0  0  0  0  0  0
   -2.9659   -2.0024   -0.8511 C   0  0  0  0  0  0  0  0  0  0  0  0
   -2.6028   -0.8169   -0.1646 C   0  0  0  0  0  0  0  0  0  0  0  0
   -1.2548   -0.6375    0.4229 C   0  0  0  0  0  0  0  0  0  0  0  0
   -0.1058   -0.6857   -0.3780 C   0  0  0  0  0  0  0  0  0  0  0  0
    1.1529   -0.4951    0.1933 C   0  0  0  0  0  0  0  0  0  0  0  0
    1.2553   -0.2309    1.5692 C   0  0  0  0  0  0  0  0  0  0  0  0
    2.4952   -0.0505    2.1983 O   0  0  0  0  0  0  0  0  0  0  0  0
    3.6364    0.5070    1.6027 C   0  0  0  0  0  0  0  0  0  0  0  0
    3.5494    1.5038    0.6156 C   0  0  0  0  0  0  0  0  0  0  0  0
    4.7107    2.0460    0.0581 C   0  0  0  0  0  0  0  0  0  0  0  0
    5.9734    1.6154    0.4822 C   0  0  0  0  0  0  0  0  0  0  0  0
    7.1058    2.1933   -0.1143 O   0  0  0  0  0  0  0  0  0  0  0  0
    8.4584    1.8701    0.2011 C   0  0  0  0  0  0  0  0  0  0  0  0
    9.2971    2.6348   -0.5862 F   0  0  0  0  0  0  0  0  0  0  0  0
    8.7017    0.5328   -0.0562 F   0  0  0  0  0  0  0  0  0  0  0  0
    8.7177    2.1496    1.5310 F   0  0  0  0  0  0  0  0  0  0  0  0
    6.0592    0.6304    1.4853 C   0  0  0  0  0  0  0  0  0  0  0  0
    4.8967    0.0889    2.0426 C   0  0  0  0  0  0  0  0  0  0  0  0
    0.1261   -0.1909    2.3262 N   0  0  0  0  0  0  0  0  0  0  0  0
   -1.1102   -0.3759    1.7917 C   0  0  0  0  0  0  0  0  0  0  0  0
   -3.5098    0.1936   -0.0280 N   0  0  0  0  0  0  0  0  0  0  0  0
   -4.7581    0.1262   -0.5693 C   0  0  0  0  0  0  0  0  0  0  0  0
   -5.6558    1.1955   -0.4128 C   0  0  0  0  0  0  0  0  0  0  0  0
   -6.9319    1.1328   -0.9767 C   0  0  0  0  0  0  0  0  0  0  0  0
   -7.3233    0.0059   -1.7014 C   0  0  0  0  0  0  0  0  0  0  0  0
   -6.4412   -1.0653   -1.8653 C   0  0  0  0  0  0  0  0  0  0  0  0
   -5.1512   -1.0168   -1.3006 C   0  0  0  0  0  0  0  0  0  0  0  0
   -4.2426   -2.0801   -1.4426 C   0  0  0  0  0  0  0  0  0  0  0  0
   -4.5716   -3.1075   -2.0991 O   0  0  0  0  0  0  0  0  0  0  0  0
  1  2  1  0
  2  3  4  0
  3  4  1  0
  4  5  4  0
  5  6  4  0
  6  7  4  0
  7  8  1  0
  8  9  1  0
  9 10  4  0
 10 11  4  0
 11 12  4  0
 12 13  1  0
 13 14  1  0
 14 15  1  0
 14 16  1  0
 14 17  1  0
 12 18  4  0
 18 19  4  0
  7 20  4  0
 20 21  4  0
  3 22  4  0
 22 23  4  0
 23 24  4  0
 24 25  4  0
 25 26  4  0
 26 27  4  0
 27 28  4  0
 28 29  4  0
 29 30  2  0
 19  9  4  0
 21  4  4  0
 28 23  4  0
 29  2  4  0
M  END
>  <SMILES>  (28) 
Cc4c(c2ccc(Oc1ccc(OC(F)(F)F)cc1)nc2)[nH]c3ccccc3c4=O

>  <NumConformers>  (28) 
32

>  <EnergyUnits>  (28) 
RDKit_forcefield

>  <Processing_Time>  (28) 
33.7s

>  <Original_Conformers>  (28) 
500

>  <Total_Conformers>  (28) 
32

>  <Energy>  (28) 
70.678613629367149

>  <Energy_Unit>  (28) 
RDKit_forcefield

>  <Rank>  (28) 
28

>  <Conformer_Index>  (28) 
27

$$$$
CK-3-22 (1T)
     RDKit          3D

 30 33  0  0  0  0  0  0  0  0999 V2000
   -2.7428   -3.5258    0.1364 C   0  0  0  0  0  0  0  0  0  0  0  0
   -3.2778   -2.1672   -0.2576 C   0  0  0  0  0  0  0  0  0  0  0  0
   -2.4654   -1.0077   -0.1967 C   0  0  0  0  0  0  0  0  0  0  0  0
   -1.0697   -1.0580    0.2971 C   0  0  0  0  0  0  0  0  0  0  0  0
   -0.0163   -0.6312   -0.5210 C   0  0  0  0  0  0  0  0  0  0  0  0
    1.2952   -0.6618   -0.0454 C   0  0  0  0  0  0  0  0  0  0  0  0
    1.5457   -1.0995    1.2658 C   0  0  0  0  0  0  0  0  0  0  0  0
    2.8451   -1.1687    1.7878 O   0  0  0  0  0  0  0  0  0  0  0  0
    3.9059   -0.3169    1.4456 C   0  0  0  0  0  0  0  0  0  0  0  0
    3.6969    1.0274    1.0914 C   0  0  0  0  0  0  0  0  0  0  0  0
    4.7810    1.8505    0.7720 C   0  0  0  0  0  0  0  0  0  0  0  0
    6.0945    1.3437    0.8148 C   0  0  0  0  0  0  0  0  0  0  0  0
    7.2202    2.1229    0.5022 O   0  0  0  0  0  0  0  0  0  0  0  0
    7.1899    3.4925    0.1065 C   0  0  0  0  0  0  0  0  0  0  0  0
    8.4829    3.9216   -0.1222 F   0  0  0  0  0  0  0  0  0  0  0  0
    6.6342    4.2664    1.1095 F   0  0  0  0  0  0  0  0  0  0  0  0
    6.4596    3.6360   -1.0597 F   0  0  0  0  0  0  0  0  0  0  0  0
    6.2969    0.0095    1.1873 C   0  0  0  0  0  0  0  0  0  0  0  0
    5.2123   -0.8123    1.5068 C   0  0  0  0  0  0  0  0  0  0  0  0
    0.5068   -1.5100    2.0415 N   0  0  0  0  0  0  0  0  0  0  0  0
   -0.7782   -1.4927    1.5980 C   0  0  0  0  0  0  0  0  0  0  0  0
   -2.9656    0.1942   -0.6062 N   0  0  0  0  0  0  0  0  0  0  0  0
   -4.2492    0.3361   -1.0397 C   0  0  0  0  0  0  0  0  0  0  0  0
   -4.7251    1.5953   -1.4417 C   0  0  0  0  0  0  0  0  0  0  0  0
   -6.0442    1.7447   -1.8756 C   0  0  0  0  0  0  0  0  0  0  0  0
   -6.8993    0.6421   -1.9112 C   0  0  0  0  0  0  0  0  0  0  0  0
   -6.4400   -0.6164   -1.5144 C   0  0  0  0  0  0  0  0  0  0  0  0
   -5.1113   -0.7825   -1.0761 C   0  0  0  0  0  0  0  0  0  0  0  0
   -4.6171   -2.0363   -0.6759 C   0  0  0  0  0  0  0  0  0  0  0  0
   -5.3735   -3.0474   -0.6937 O   0  0  0  0  0  0  0  0  0  0  0  0
  1  2  1  0
  2  3  4  0
  3  4  1  0
  4  5  4  0
  5  6  4  0
  6  7  4  0
  7  8  1  0
  8  9  1  0
  9 10  4  0
 10 11  4  0
 11 12  4  0
 12 13  1  0
 13 14  1  0
 14 15  1  0
 14 16  1  0
 14 17  1  0
 12 18  4  0
 18 19  4  0
  7 20  4  0
 20 21  4  0
  3 22  4  0
 22 23  4  0
 23 24  4  0
 24 25  4  0
 25 26  4  0
 26 27  4  0
 27 28  4  0
 28 29  4  0
 29 30  2  0
 19  9  4  0
 21  4  4  0
 28 23  4  0
 29  2  4  0
M  END
>  <SMILES>  (29) 
Cc4c(c2ccc(Oc1ccc(OC(F)(F)F)cc1)nc2)[nH]c3ccccc3c4=O

>  <NumConformers>  (29) 
32

>  <EnergyUnits>  (29) 
RDKit_forcefield

>  <Processing_Time>  (29) 
33.7s

>  <Original_Conformers>  (29) 
500

>  <Total_Conformers>  (29) 
32

>  <Energy>  (29) 
70.690374774796481

>  <Energy_Unit>  (29) 
RDKit_forcefield

>  <Rank>  (29) 
29

>  <Conformer_Index>  (29) 
28

$$$$
CK-3-22 (1T)
     RDKit          3D

 30 33  0  0  0  0  0  0  0  0999 V2000
   -2.9267   -3.2420    0.9317 C   0  0  0  0  0  0  0  0  0  0  0  0
   -3.3777   -2.0131    0.1743 C   0  0  0  0  0  0  0  0  0  0  0  0
   -2.4529   -1.0269   -0.2505 C   0  0  0  0  0  0  0  0  0  0  0  0
   -0.9973   -1.1697   -0.0158 C   0  0  0  0  0  0  0  0  0  0  0  0
   -0.3002   -0.1932    0.7064 C   0  0  0  0  0  0  0  0  0  0  0  0
    1.0745   -0.3213    0.9088 C   0  0  0  0  0  0  0  0  0  0  0  0
    1.7548   -1.4221    0.3619 C   0  0  0  0  0  0  0  0  0  0  0  0
    3.1312   -1.6102    0.5506 O   0  0  0  0  0  0  0  0  0  0  0  0
    4.0809   -0.5870    0.6888 C   0  0  0  0  0  0  0  0  0  0  0  0
    3.9400    0.6522    0.0402 C   0  0  0  0  0  0  0  0  0  0  0  0
    4.9159    1.6425    0.1890 C   0  0  0  0  0  0  0  0  0  0  0  0
    6.0562    1.4027    0.9802 C   0  0  0  0  0  0  0  0  0  0  0  0
    7.0664    2.3601    1.1671 O   0  0  0  0  0  0  0  0  0  0  0  0
    7.0753    3.6693    0.6020 C   0  0  0  0  0  0  0  0  0  0  0  0
    5.9744    4.3846    1.0381 F   0  0  0  0  0  0  0  0  0  0  0  0
    7.0711    3.5924   -0.7793 F   0  0  0  0  0  0  0  0  0  0  0  0
    8.2215    4.3248    1.0078 F   0  0  0  0  0  0  0  0  0  0  0  0
    6.1997    0.1594    1.6074 C   0  0  0  0  0  0  0  0  0  0  0  0
    5.2237   -0.8298    1.4576 C   0  0  0  0  0  0  0  0  0  0  0  0
    1.0565   -2.3581   -0.3352 N   0  0  0  0  0  0  0  0  0  0  0  0
   -0.2834   -2.2561   -0.5414 C   0  0  0  0  0  0  0  0  0  0  0  0
   -2.9002    0.0934   -0.8888 N   0  0  0  0  0  0  0  0  0  0  0  0
   -4.2175    0.2872   -1.1767 C   0  0  0  0  0  0  0  0  0  0  0  0
   -4.6318    1.4512   -1.8454 C   0  0  0  0  0  0  0  0  0  0  0  0
   -5.9804    1.6463   -2.1514 C   0  0  0  0  0  0  0  0  0  0  0  0
   -6.9261    0.6835   -1.7953 C   0  0  0  0  0  0  0  0  0  0  0  0
   -6.5290   -0.4792   -1.1300 C   0  0  0  0  0  0  0  0  0  0  0  0
   -5.1721   -0.6887   -0.8131 C   0  0  0  0  0  0  0  0  0  0  0  0
   -4.7412   -1.8449   -0.1393 C   0  0  0  0  0  0  0  0  0  0  0  0
   -5.5774   -2.7328    0.1878 O   0  0  0  0  0  0  0  0  0  0  0  0
  1  2  1  0
  2  3  4  0
  3  4  1  0
  4  5  4  0
  5  6  4  0
  6  7  4  0
  7  8  1  0
  8  9  1  0
  9 10  4  0
 10 11  4  0
 11 12  4  0
 12 13  1  0
 13 14  1  0
 14 15  1  0
 14 16  1  0
 14 17  1  0
 12 18  4  0
 18 19  4  0
  7 20  4  0
 20 21  4  0
  3 22  4  0
 22 23  4  0
 23 24  4  0
 24 25  4  0
 25 26  4  0
 26 27  4  0
 27 28  4  0
 28 29  4  0
 29 30  2  0
 19  9  4  0
 21  4  4  0
 28 23  4  0
 29  2  4  0
M  END
>  <SMILES>  (30) 
Cc4c(c2ccc(Oc1ccc(OC(F)(F)F)cc1)nc2)[nH]c3ccccc3c4=O

>  <NumConformers>  (30) 
32

>  <EnergyUnits>  (30) 
RDKit_forcefield

>  <Processing_Time>  (30) 
33.7s

>  <Original_Conformers>  (30) 
500

>  <Total_Conformers>  (30) 
32

>  <Energy>  (30) 
70.690374785512176

>  <Energy_Unit>  (30) 
RDKit_forcefield

>  <Rank>  (30) 
30

>  <Conformer_Index>  (30) 
29

$$$$
CK-3-22 (1T)
     RDKit          3D

 30 33  0  0  0  0  0  0  0  0999 V2000
   -2.8880   -3.1772    1.0542 C   0  0  0  0  0  0  0  0  0  0  0  0
   -3.4138   -2.0164    0.2400 C   0  0  0  0  0  0  0  0  0  0  0  0
   -2.5463   -1.0170   -0.2669 C   0  0  0  0  0  0  0  0  0  0  0  0
   -1.0802   -1.0812   -0.0653 C   0  0  0  0  0  0  0  0  0  0  0  0
   -0.4103   -0.0340    0.5794 C   0  0  0  0  0  0  0  0  0  0  0  0
    0.9735   -0.0891    0.7503 C   0  0  0  0  0  0  0  0  0  0  0  0
    1.6893   -1.1891    0.2490 C   0  0  0  0  0  0  0  0  0  0  0  0
    3.0772   -1.3048    0.4097 O   0  0  0  0  0  0  0  0  0  0  0  0
    3.9825   -0.2344    0.4618 C   0  0  0  0  0  0  0  0  0  0  0  0
    3.7687    0.9569   -0.2529 C   0  0  0  0  0  0  0  0  0  0  0  0
    4.7031    1.9943   -0.1879 C   0  0  0  0  0  0  0  0  0  0  0  0
    5.8676    1.8581    0.5768 C   0  0  0  0  0  0  0  0  0  0  0  0
    6.7702    2.9335    0.6075 O   0  0  0  0  0  0  0  0  0  0  0  0
    7.9979    2.9582    1.3325 C   0  0  0  0  0  0  0  0  0  0  0  0
    8.6150    4.1769    1.1274 F   0  0  0  0  0  0  0  0  0  0  0  0
    8.8363    1.9530    0.8848 F   0  0  0  0  0  0  0  0  0  0  0  0
    7.7558    2.8031    2.6857 F   0  0  0  0  0  0  0  0  0  0  0  0
    6.0899    0.6563    1.2769 C   0  0  0  0  0  0  0  0  0  0  0  0
    5.1546   -0.3811    1.2109 C   0  0  0  0  0  0  0  0  0  0  0  0
    1.0171   -2.1945   -0.3730 N   0  0  0  0  0  0  0  0  0  0  0  0
   -0.3309   -2.1642   -0.5471 C   0  0  0  0  0  0  0  0  0  0  0  0
   -3.0605    0.0428   -0.9560 N   0  0  0  0  0  0  0  0  0  0  0  0
   -4.3922    0.1609   -1.2175 C   0  0  0  0  0  0  0  0  0  0  0  0
   -4.8762    1.2640   -1.9404 C   0  0  0  0  0  0  0  0  0  0  0  0
   -6.2396    1.3809   -2.2192 C   0  0  0  0  0  0  0  0  0  0  0  0
   -7.1310    0.3999   -1.7817 C   0  0  0  0  0  0  0  0  0  0  0  0
   -6.6642   -0.7028   -1.0617 C   0  0  0  0  0  0  0  0  0  0  0  0
   -5.2916   -0.8331   -0.7715 C   0  0  0  0  0  0  0  0  0  0  0  0
   -4.7912   -1.9273   -0.0444 C   0  0  0  0  0  0  0  0  0  0  0  0
   -5.5773   -2.8305    0.3569 O   0  0  0  0  0  0  0  0  0  0  0  0
  1  2  1  0
  2  3  4  0
  3  4  1  0
  4  5  4  0
  5  6  4  0
  6  7  4  0
  7  8  1  0
  8  9  1  0
  9 10  4  0
 10 11  4  0
 11 12  4  0
 12 13  1  0
 13 14  1  0
 14 15  1  0
 14 16  1  0
 14 17  1  0
 12 18  4  0
 18 19  4  0
  7 20  4  0
 20 21  4  0
  3 22  4  0
 22 23  4  0
 23 24  4  0
 24 25  4  0
 25 26  4  0
 26 27  4  0
 27 28  4  0
 28 29  4  0
 29 30  2  0
 19  9  4  0
 21  4  4  0
 28 23  4  0
 29  2  4  0
M  END
>  <SMILES>  (31) 
Cc4c(c2ccc(Oc1ccc(OC(F)(F)F)cc1)nc2)[nH]c3ccccc3c4=O

>  <NumConformers>  (31) 
32

>  <EnergyUnits>  (31) 
RDKit_forcefield

>  <Processing_Time>  (31) 
33.7s

>  <Original_Conformers>  (31) 
500

>  <Total_Conformers>  (31) 
32

>  <Energy>  (31) 
70.704216144298698

>  <Energy_Unit>  (31) 
RDKit_forcefield

>  <Rank>  (31) 
31

>  <Conformer_Index>  (31) 
30

$$$$
CK-3-22 (1T)
     RDKit          3D

 30 33  0  0  0  0  0  0  0  0999 V2000
   -2.6853   -3.5096    0.2272 C   0  0  0  0  0  0  0  0  0  0  0  0
   -3.2990   -2.2047   -0.2287 C   0  0  0  0  0  0  0  0  0  0  0  0
   -2.5590   -0.9962   -0.2152 C   0  0  0  0  0  0  0  0  0  0  0  0
   -1.1665   -0.9397    0.2868 C   0  0  0  0  0  0  0  0  0  0  0  0
   -0.1350   -0.4856   -0.5443 C   0  0  0  0  0  0  0  0  0  0  0  0
    1.1725   -0.4154   -0.0617 C   0  0  0  0  0  0  0  0  0  0  0  0
    1.4394   -0.7793    1.2687 C   0  0  0  0  0  0  0  0  0  0  0  0
    2.7367   -0.7464    1.7993 O   0  0  0  0  0  0  0  0  0  0  0  0
    3.7465    0.1526    1.4250 C   0  0  0  0  0  0  0  0  0  0  0  0
    3.4590    1.4647    1.0109 C   0  0  0  0  0  0  0  0  0  0  0  0
    4.4949    2.3358    0.6617 C   0  0  0  0  0  0  0  0  0  0  0  0
    5.8298    1.9202    0.7312 C   0  0  0  0  0  0  0  0  0  0  0  0
    6.8293    2.8365    0.3663 O   0  0  0  0  0  0  0  0  0  0  0  0
    8.2311    2.5756    0.3805 C   0  0  0  0  0  0  0  0  0  0  0  0
    8.9018    3.7065   -0.0430 F   0  0  0  0  0  0  0  0  0  0  0  0
    8.5308    1.5322   -0.4770 F   0  0  0  0  0  0  0  0  0  0  0  0
    8.6455    2.2659    1.6636 F   0  0  0  0  0  0  0  0  0  0  0  0
    6.1173    0.6113    1.1650 C   0  0  0  0  0  0  0  0  0  0  0  0
    5.0802   -0.2591    1.5144 C   0  0  0  0  0  0  0  0  0  0  0  0
    0.4216   -1.2180    2.0569 N   0  0  0  0  0  0  0  0  0  0  0  0
   -0.8588   -1.2985    1.6071 C   0  0  0  0  0  0  0  0  0  0  0  0
   -3.1282    0.1539   -0.6796 N   0  0  0  0  0  0  0  0  0  0  0  0
   -4.4149    0.1981   -1.1249 C   0  0  0  0  0  0  0  0  0  0  0  0
   -4.9635    1.4071   -1.5842 C   0  0  0  0  0  0  0  0  0  0  0  0
   -6.2859    1.4567   -2.0305 C   0  0  0  0  0  0  0  0  0  0  0  0
   -7.0722    0.3035   -2.0215 C   0  0  0  0  0  0  0  0  0  0  0  0
   -6.5403   -0.9061   -1.5675 C   0  0  0  0  0  0  0  0  0  0  0  0
   -5.2072   -0.9715   -1.1160 C   0  0  0  0  0  0  0  0  0  0  0  0
   -4.6407   -2.1742   -0.6587 C   0  0  0  0  0  0  0  0  0  0  0  0
   -5.3341   -3.2293   -0.6355 O   0  0  0  0  0  0  0  0  0  0  0  0
  1  2  1  0
  2  3  4  0
  3  4  1  0
  4  5  4  0
  5  6  4  0
  6  7  4  0
  7  8  1  0
  8  9  1  0
  9 10  4  0
 10 11  4  0
 11 12  4  0
 12 13  1  0
 13 14  1  0
 14 15  1  0
 14 16  1  0
 14 17  1  0
 12 18  4  0
 18 19  4  0
  7 20  4  0
 20 21  4  0
  3 22  4  0
 22 23  4  0
 23 24  4  0
 24 25  4  0
 25 26  4  0
 26 27  4  0
 27 28  4  0
 28 29  4  0
 29 30  2  0
 19  9  4  0
 21  4  4  0
 28 23  4  0
 29  2  4  0
M  END
>  <SMILES>  (32) 
Cc4c(c2ccc(Oc1ccc(OC(F)(F)F)cc1)nc2)[nH]c3ccccc3c4=O

>  <NumConformers>  (32) 
32

>  <EnergyUnits>  (32) 
RDKit_forcefield

>  <Processing_Time>  (32) 
33.7s

>  <Original_Conformers>  (32) 
500

>  <Total_Conformers>  (32) 
32

>  <Energy>  (32) 
70.704216147868095

>  <Energy_Unit>  (32) 
RDKit_forcefield

>  <Rank>  (32) 
32

>  <Conformer_Index>  (32) 
31

$$$$
