GN-171
     RDKit          3D

 34 37  0  0  0  0  0  0  0  0999 V2000
    1.6307    0.3780   -1.9775 C   0  0  0  0  0  0  0  0  0  0  0  0
    0.5675   -0.6708   -2.2608 C   0  0  0  0  0  0  0  0  0  0  0  0
   -0.6020   -0.3704   -1.5082 O   0  0  0  0  0  0  0  0  0  0  0  0
   -1.7479   -1.1715   -1.5280 C   0  0  0  0  0  0  0  0  0  0  0  0
   -1.8146   -2.1608   -2.3086 O   0  0  0  0  0  0  0  0  0  0  0  0
   -2.8891   -0.8476   -0.6318 C   0  0  0  0  0  0  0  0  0  0  0  0
   -2.6768   -0.2970    0.6585 C   0  0  0  0  0  0  0  0  0  0  0  0
   -1.3170   -0.1437    1.2258 C   0  0  0  0  0  0  0  0  0  0  0  0
   -0.4788   -1.2594    1.3811 C   0  0  0  0  0  0  0  0  0  0  0  0
    0.8155   -1.1038    1.8833 C   0  0  0  0  0  0  0  0  0  0  0  0
    1.2838    0.1668    2.2535 C   0  0  0  0  0  0  0  0  0  0  0  0
    2.7062    0.3459    2.7100 C   0  0  0  0  0  0  0  0  0  0  0  0
    3.5996    0.5663    1.5198 C   0  0  0  0  0  0  0  0  0  0  0  0
    4.1491   -0.5285    0.8350 C   0  0  0  0  0  0  0  0  0  0  0  0
    4.9152   -0.3300   -0.3172 C   0  0  0  0  0  0  0  0  0  0  0  0
    5.1386    0.9718   -0.8065 C   0  0  0  0  0  0  0  0  0  0  0  0
    5.8877    1.2285   -1.9656 O   0  0  0  0  0  0  0  0  0  0  0  0
    6.4802    0.2351   -2.7995 C   0  0  0  0  0  0  0  0  0  0  0  0
    5.5033   -0.5995   -3.3120 F   0  0  0  0  0  0  0  0  0  0  0  0
    7.1288    0.8586   -3.8481 F   0  0  0  0  0  0  0  0  0  0  0  0
    7.4033   -0.5028   -2.0802 F   0  0  0  0  0  0  0  0  0  0  0  0
    4.5872    2.0608   -0.1209 C   0  0  0  0  0  0  0  0  0  0  0  0
    3.8179    1.8626    1.0291 C   0  0  0  0  0  0  0  0  0  0  0  0
    0.4400    1.2796    2.1105 C   0  0  0  0  0  0  0  0  0  0  0  0
   -0.8560    1.1233    1.6104 C   0  0  0  0  0  0  0  0  0  0  0  0
   -3.7429    0.0746    1.4245 N   0  0  0  0  0  0  0  0  0  0  0  0
   -5.0288   -0.0956    1.0094 C   0  0  0  0  0  0  0  0  0  0  0  0
   -6.0960    0.2868    1.8389 C   0  0  0  0  0  0  0  0  0  0  0  0
   -7.4155    0.1061    1.4188 C   0  0  0  0  0  0  0  0  0  0  0  0
   -7.6820   -0.4575    0.1698 C   0  0  0  0  0  0  0  0  0  0  0  0
   -6.6306   -0.8421   -0.6665 C   0  0  0  0  0  0  0  0  0  0  0  0
   -5.2944   -0.6666   -0.2553 C   0  0  0  0  0  0  0  0  0  0  0  0
   -4.2147   -1.0370   -1.0766 C   0  0  0  0  0  0  0  0  0  0  0  0
   -4.4341   -1.5210   -2.2223 O   0  0  0  0  0  0  0  0  0  0  0  0
  1  2  1  0
  2  3  1  0
  3  4  1  0
  4  5  2  0
  4  6  1  0
  6  7  4  0
  7  8  1  0
  8  9  4  0
  9 10  4  0
 10 11  4  0
 11 12  1  0
 12 13  1  0
 13 14  4  0
 14 15  4  0
 15 16  4  0
 16 17  1  0
 17 18  1  0
 18 19  1  0
 18 20  1  0
 18 21  1  0
 16 22  4  0
 22 23  4  0
 11 24  4  0
 24 25  4  0
  7 26  4  0
 26 27  4  0
 27 28  4  0
 28 29  4  0
 29 30  4  0
 30 31  4  0
 31 32  4  0
 32 33  4  0
 33 34  2  0
 23 13  4  0
 25  8  4  0
 32 27  4  0
 33  6  4  0
M  END
>  <SMILES>  (1) 
CCOC(=O)c4c(c2ccc(Cc1ccc(OC(F)(F)F)cc1)cc2)[nH]c3ccccc3c4=O

>  <NumConformers>  (1) 
48

>  <EnergyUnits>  (1) 
RDKit_forcefield

>  <Processing_Time>  (1) 
83.7s

>  <Original_Conformers>  (1) 
500

>  <Total_Conformers>  (1) 
48

>  <Energy>  (1) 
65.280557093313377

>  <Energy_Unit>  (1) 
RDKit_forcefield

>  <Rank>  (1) 
1

>  <Conformer_Index>  (1) 
0

$$$$
GN-171
     RDKit          3D

 34 37  0  0  0  0  0  0  0  0999 V2000
    1.7306   -0.5791   -1.8524 C   0  0  0  0  0  0  0  0  0  0  0  0
    0.4904    0.1394   -2.3604 C   0  0  0  0  0  0  0  0  0  0  0  0
   -0.6205   -0.1956   -1.5368 O   0  0  0  0  0  0  0  0  0  0  0  0
   -1.9009    0.3317   -1.7346 C   0  0  0  0  0  0  0  0  0  0  0  0
   -2.1411    1.0467   -2.7462 O   0  0  0  0  0  0  0  0  0  0  0  0
   -2.9789    0.0380   -0.7546 C   0  0  0  0  0  0  0  0  0  0  0  0
   -2.6984   -0.0873    0.6305 C   0  0  0  0  0  0  0  0  0  0  0  0
   -1.3529    0.1980    1.1800 C   0  0  0  0  0  0  0  0  0  0  0  0
   -0.6530   -0.7971    1.8773 C   0  0  0  0  0  0  0  0  0  0  0  0
    0.6335   -0.5449    2.3618 C   0  0  0  0  0  0  0  0  0  0  0  0
    1.2282    0.7128    2.1738 C   0  0  0  0  0  0  0  0  0  0  0  0
    2.6436    0.9579    2.6214 C   0  0  0  0  0  0  0  0  0  0  0  0
    3.5984    0.5901    1.5182 C   0  0  0  0  0  0  0  0  0  0  0  0
    4.0792   -0.7233    1.4067 C   0  0  0  0  0  0  0  0  0  0  0  0
    4.9032   -1.0841    0.3372 C   0  0  0  0  0  0  0  0  0  0  0  0
    5.2523   -0.1460   -0.6420 C   0  0  0  0  0  0  0  0  0  0  0  0
    6.0687   -0.5687   -1.7035 O   0  0  0  0  0  0  0  0  0  0  0  0
    6.4692    0.2406   -2.8068 C   0  0  0  0  0  0  0  0  0  0  0  0
    7.2211    1.3139   -2.3639 F   0  0  0  0  0  0  0  0  0  0  0  0
    5.3570    0.6950   -3.4935 F   0  0  0  0  0  0  0  0  0  0  0  0
    7.2415   -0.5204   -3.6629 F   0  0  0  0  0  0  0  0  0  0  0  0
    4.7693    1.1723   -0.5309 C   0  0  0  0  0  0  0  0  0  0  0  0
    3.9448    1.5333    0.5388 C   0  0  0  0  0  0  0  0  0  0  0  0
    0.5213    1.7125    1.4875 C   0  0  0  0  0  0  0  0  0  0  0  0
   -0.7641    1.4602    1.0028 C   0  0  0  0  0  0  0  0  0  0  0  0
   -3.6906   -0.4406    1.4976 N   0  0  0  0  0  0  0  0  0  0  0  0
   -4.9721   -0.6493    1.0867 C   0  0  0  0  0  0  0  0  0  0  0  0
   -5.9653   -0.9975    2.0175 C   0  0  0  0  0  0  0  0  0  0  0  0
   -7.2813   -1.2061    1.5992 C   0  0  0  0  0  0  0  0  0  0  0  0
   -7.6185   -1.0691    0.2518 C   0  0  0  0  0  0  0  0  0  0  0  0
   -6.6414   -0.7231   -0.6853 C   0  0  0  0  0  0  0  0  0  0  0  0
   -5.3094   -0.5090   -0.2782 C   0  0  0  0  0  0  0  0  0  0  0  0
   -4.3018   -0.1687   -1.1984 C   0  0  0  0  0  0  0  0  0  0  0  0
   -4.5794   -0.0694   -2.4268 O   0  0  0  0  0  0  0  0  0  0  0  0
  1  2  1  0
  2  3  1  0
  3  4  1  0
  4  5  2  0
  4  6  1  0
  6  7  4  0
  7  8  1  0
  8  9  4  0
  9 10  4  0
 10 11  4  0
 11 12  1  0
 12 13  1  0
 13 14  4  0
 14 15  4  0
 15 16  4  0
 16 17  1  0
 17 18  1  0
 18 19  1  0
 18 20  1  0
 18 21  1  0
 16 22  4  0
 22 23  4  0
 11 24  4  0
 24 25  4  0
  7 26  4  0
 26 27  4  0
 27 28  4  0
 28 29  4  0
 29 30  4  0
 30 31  4  0
 31 32  4  0
 32 33  4  0
 33 34  2  0
 23 13  4  0
 25  8  4  0
 32 27  4  0
 33  6  4  0
M  END
>  <SMILES>  (2) 
CCOC(=O)c4c(c2ccc(Cc1ccc(OC(F)(F)F)cc1)cc2)[nH]c3ccccc3c4=O

>  <NumConformers>  (2) 
48

>  <EnergyUnits>  (2) 
RDKit_forcefield

>  <Processing_Time>  (2) 
83.7s

>  <Original_Conformers>  (2) 
500

>  <Total_Conformers>  (2) 
48

>  <Energy>  (2) 
65.286073605189841

>  <Energy_Unit>  (2) 
RDKit_forcefield

>  <Rank>  (2) 
2

>  <Conformer_Index>  (2) 
1

$$$$
GN-171
     RDKit          3D

 34 37  0  0  0  0  0  0  0  0999 V2000
    1.5805    0.0266   -2.1151 C   0  0  0  0  0  0  0  0  0  0  0  0
    0.2810    0.7478   -2.4347 C   0  0  0  0  0  0  0  0  0  0  0  0
   -0.7705    0.1909   -1.6514 O   0  0  0  0  0  0  0  0  0  0  0  0
   -2.0918    0.6359   -1.7278 C   0  0  0  0  0  0  0  0  0  0  0  0
   -2.4329    1.4496   -2.6298 O   0  0  0  0  0  0  0  0  0  0  0  0
   -3.0917    0.1523   -0.7399 C   0  0  0  0  0  0  0  0  0  0  0  0
   -2.7202   -0.1252    0.6003 C   0  0  0  0  0  0  0  0  0  0  0  0
   -1.3675    0.1899    1.1159 C   0  0  0  0  0  0  0  0  0  0  0  0
   -0.8824    1.5067    1.0777 C   0  0  0  0  0  0  0  0  0  0  0  0
    0.4051    1.7988    1.5354 C   0  0  0  0  0  0  0  0  0  0  0  0
    1.2154    0.7814    2.0631 C   0  0  0  0  0  0  0  0  0  0  0  0
    2.6233    1.0841    2.4983 C   0  0  0  0  0  0  0  0  0  0  0  0
    3.5795    0.8193    1.3678 C   0  0  0  0  0  0  0  0  0  0  0  0
    4.2181   -0.4260    1.2548 C   0  0  0  0  0  0  0  0  0  0  0  0
    5.0717   -0.6896    0.1788 C   0  0  0  0  0  0  0  0  0  0  0  0
    5.2837    0.2896   -0.8144 C   0  0  0  0  0  0  0  0  0  0  0  0
    6.1146    0.0754   -1.9268 O   0  0  0  0  0  0  0  0  0  0  0  0
    6.8534   -1.1250   -2.1855 C   0  0  0  0  0  0  0  0  0  0  0  0
    5.9969   -2.2067   -2.2932 F   0  0  0  0  0  0  0  0  0  0  0  0
    7.5344   -0.9786   -3.3795 F   0  0  0  0  0  0  0  0  0  0  0  0
    7.7729   -1.3488   -1.1678 F   0  0  0  0  0  0  0  0  0  0  0  0
    4.6416    1.5299   -0.6990 C   0  0  0  0  0  0  0  0  0  0  0  0
    3.7948    1.7939    0.3812 C   0  0  0  0  0  0  0  0  0  0  0  0
    0.7236   -0.5345    2.1175 C   0  0  0  0  0  0  0  0  0  0  0  0
   -0.5627   -0.8260    1.6533 C   0  0  0  0  0  0  0  0  0  0  0  0
   -3.6380   -0.6382    1.4699 N   0  0  0  0  0  0  0  0  0  0  0  0
   -4.9314   -0.8640    1.1081 C   0  0  0  0  0  0  0  0  0  0  0  0
   -5.8488   -1.3669    2.0451 C   0  0  0  0  0  0  0  0  0  0  0  0
   -7.1782   -1.5894    1.6801 C   0  0  0  0  0  0  0  0  0  0  0  0
   -7.6030   -1.3147    0.3779 C   0  0  0  0  0  0  0  0  0  0  0  0
   -6.7015   -0.8135   -0.5645 C   0  0  0  0  0  0  0  0  0  0  0  0
   -5.3578   -0.5812   -0.2101 C   0  0  0  0  0  0  0  0  0  0  0  0
   -4.4272   -0.0751   -1.1335 C   0  0  0  0  0  0  0  0  0  0  0  0
   -4.7874    0.1640   -2.3169 O   0  0  0  0  0  0  0  0  0  0  0  0
  1  2  1  0
  2  3  1  0
  3  4  1  0
  4  5  2  0
  4  6  1  0
  6  7  4  0
  7  8  1  0
  8  9  4  0
  9 10  4  0
 10 11  4  0
 11 12  1  0
 12 13  1  0
 13 14  4  0
 14 15  4  0
 15 16  4  0
 16 17  1  0
 17 18  1  0
 18 19  1  0
 18 20  1  0
 18 21  1  0
 16 22  4  0
 22 23  4  0
 11 24  4  0
 24 25  4  0
  7 26  4  0
 26 27  4  0
 27 28  4  0
 28 29  4  0
 29 30  4  0
 30 31  4  0
 31 32  4  0
 32 33  4  0
 33 34  2  0
 23 13  4  0
 25  8  4  0
 32 27  4  0
 33  6  4  0
M  END
>  <SMILES>  (3) 
CCOC(=O)c4c(c2ccc(Cc1ccc(OC(F)(F)F)cc1)cc2)[nH]c3ccccc3c4=O

>  <NumConformers>  (3) 
48

>  <EnergyUnits>  (3) 
RDKit_forcefield

>  <Processing_Time>  (3) 
83.7s

>  <Original_Conformers>  (3) 
500

>  <Total_Conformers>  (3) 
48

>  <Energy>  (3) 
65.807319516631821

>  <Energy_Unit>  (3) 
RDKit_forcefield

>  <Rank>  (3) 
3

>  <Conformer_Index>  (3) 
2

$$$$
GN-171
     RDKit          3D

 34 37  0  0  0  0  0  0  0  0999 V2000
    1.4873   -0.4720   -2.2698 C   0  0  0  0  0  0  0  0  0  0  0  0
    0.3536   -1.4830   -2.2171 C   0  0  0  0  0  0  0  0  0  0  0  0
   -0.7703   -0.9054   -1.5621 O   0  0  0  0  0  0  0  0  0  0  0  0
   -1.9840   -1.5853   -1.3952 C   0  0  0  0  0  0  0  0  0  0  0  0
   -2.1730   -2.6981   -1.9653 O   0  0  0  0  0  0  0  0  0  0  0  0
   -3.0518   -0.9861   -0.5525 C   0  0  0  0  0  0  0  0  0  0  0  0
   -2.7361   -0.2537    0.6208 C   0  0  0  0  0  0  0  0  0  0  0  0
   -1.3491   -0.1676    1.1345 C   0  0  0  0  0  0  0  0  0  0  0  0
   -0.6370   -1.3343    1.4575 C   0  0  0  0  0  0  0  0  0  0  0  0
    0.6730   -1.2493    1.9348 C   0  0  0  0  0  0  0  0  0  0  0  0
    1.2834    0.0035    2.1128 C   0  0  0  0  0  0  0  0  0  0  0  0
    2.7120    0.0916    2.5786 C   0  0  0  0  0  0  0  0  0  0  0  0
    3.6356    0.2605    1.4017 C   0  0  0  0  0  0  0  0  0  0  0  0
    3.9523   -0.8415    0.5907 C   0  0  0  0  0  0  0  0  0  0  0  0
    4.7881   -0.6810   -0.5185 C   0  0  0  0  0  0  0  0  0  0  0  0
    5.3261    0.5751   -0.8322 C   0  0  0  0  0  0  0  0  0  0  0  0
    6.1770    0.6703   -1.9435 O   0  0  0  0  0  0  0  0  0  0  0  0
    6.8691    1.8493   -2.3587 C   0  0  0  0  0  0  0  0  0  0  0  0
    7.6278    1.5514   -3.4749 F   0  0  0  0  0  0  0  0  0  0  0  0
    5.9691    2.8498   -2.6872 F   0  0  0  0  0  0  0  0  0  0  0  0
    7.7123    2.2849   -1.3463 F   0  0  0  0  0  0  0  0  0  0  0  0
    5.0018    1.6840   -0.0247 C   0  0  0  0  0  0  0  0  0  0  0  0
    4.1556    1.5270    1.0781 C   0  0  0  0  0  0  0  0  0  0  0  0
    0.5689    1.1692    1.7940 C   0  0  0  0  0  0  0  0  0  0  0  0
   -0.7425    1.0845    1.3174 C   0  0  0  0  0  0  0  0  0  0  0  0
   -3.7304    0.3426    1.3368 N   0  0  0  0  0  0  0  0  0  0  0  0
   -5.0419    0.2367    0.9842 C   0  0  0  0  0  0  0  0  0  0  0  0
   -6.0342    0.8486    1.7643 C   0  0  0  0  0  0  0  0  0  0  0  0
   -7.3801    0.7307    1.4121 C   0  0  0  0  0  0  0  0  0  0  0  0
   -7.7485    0.0018    0.2809 C   0  0  0  0  0  0  0  0  0  0  0  0
   -6.7725   -0.6113   -0.5046 C   0  0  0  0  0  0  0  0  0  0  0  0
   -5.4105   -0.5019   -0.1613 C   0  0  0  0  0  0  0  0  0  0  0  0
   -4.4047   -1.1088   -0.9328 C   0  0  0  0  0  0  0  0  0  0  0  0
   -4.7137   -1.7504   -1.9770 O   0  0  0  0  0  0  0  0  0  0  0  0
  1  2  1  0
  2  3  1  0
  3  4  1  0
  4  5  2  0
  4  6  1  0
  6  7  4  0
  7  8  1  0
  8  9  4  0
  9 10  4  0
 10 11  4  0
 11 12  1  0
 12 13  1  0
 13 14  4  0
 14 15  4  0
 15 16  4  0
 16 17  1  0
 17 18  1  0
 18 19  1  0
 18 20  1  0
 18 21  1  0
 16 22  4  0
 22 23  4  0
 11 24  4  0
 24 25  4  0
  7 26  4  0
 26 27  4  0
 27 28  4  0
 28 29  4  0
 29 30  4  0
 30 31  4  0
 31 32  4  0
 32 33  4  0
 33 34  2  0
 23 13  4  0
 25  8  4  0
 32 27  4  0
 33  6  4  0
M  END
>  <SMILES>  (4) 
CCOC(=O)c4c(c2ccc(Cc1ccc(OC(F)(F)F)cc1)cc2)[nH]c3ccccc3c4=O

>  <NumConformers>  (4) 
48

>  <EnergyUnits>  (4) 
RDKit_forcefield

>  <Processing_Time>  (4) 
83.7s

>  <Original_Conformers>  (4) 
500

>  <Total_Conformers>  (4) 
48

>  <Energy>  (4) 
66.323111392901779

>  <Energy_Unit>  (4) 
RDKit_forcefield

>  <Rank>  (4) 
4

>  <Conformer_Index>  (4) 
3

$$$$
GN-171
     RDKit          3D

 34 37  0  0  0  0  0  0  0  0999 V2000
    1.5434   -0.7605   -1.8394 C   0  0  0  0  0  0  0  0  0  0  0  0
    0.6389    0.4165   -2.1826 C   0  0  0  0  0  0  0  0  0  0  0  0
   -0.5374    0.4035   -1.3759 O   0  0  0  0  0  0  0  0  0  0  0  0
   -1.6200   -0.4603   -1.5914 C   0  0  0  0  0  0  0  0  0  0  0  0
   -1.6094   -1.2559   -2.5707 O   0  0  0  0  0  0  0  0  0  0  0  0
   -2.7963   -0.4145   -0.6808 C   0  0  0  0  0  0  0  0  0  0  0  0
   -2.6447   -0.1319    0.6997 C   0  0  0  0  0  0  0  0  0  0  0  0
   -1.3089   -0.0111    1.3172 C   0  0  0  0  0  0  0  0  0  0  0  0
   -0.4559   -1.1227    1.3762 C   0  0  0  0  0  0  0  0  0  0  0  0
    0.8362   -0.9895    1.8889 C   0  0  0  0  0  0  0  0  0  0  0  0
    1.2930    0.2582    2.3419 C   0  0  0  0  0  0  0  0  0  0  0  0
    2.7335    0.4328    2.7377 C   0  0  0  0  0  0  0  0  0  0  0  0
    3.5814    0.5622    1.5005 C   0  0  0  0  0  0  0  0  0  0  0  0
    3.6375    1.7817    0.8091 C   0  0  0  0  0  0  0  0  0  0  0  0
    4.3459    1.8801   -0.3913 C   0  0  0  0  0  0  0  0  0  0  0  0
    5.0024    0.7651   -0.9250 C   0  0  0  0  0  0  0  0  0  0  0  0
    5.6854    0.9181   -2.1423 O   0  0  0  0  0  0  0  0  0  0  0  0
    6.3782   -0.1188   -2.8336 C   0  0  0  0  0  0  0  0  0  0  0  0
    5.5043   -1.1404   -3.1601 F   0  0  0  0  0  0  0  0  0  0  0  0
    6.9133    0.3984   -3.9973 F   0  0  0  0  0  0  0  0  0  0  0  0
    7.4068   -0.6098   -2.0496 F   0  0  0  0  0  0  0  0  0  0  0  0
    4.9486   -0.4590   -0.2305 C   0  0  0  0  0  0  0  0  0  0  0  0
    4.2395   -0.5581    0.9702 C   0  0  0  0  0  0  0  0  0  0  0  0
    0.4266    1.3630    2.3081 C   0  0  0  0  0  0  0  0  0  0  0  0
   -0.8724    1.2253    1.8114 C   0  0  0  0  0  0  0  0  0  0  0  0
   -3.7430   -0.0070    1.4980 N   0  0  0  0  0  0  0  0  0  0  0  0
   -5.0071   -0.1790    1.0213 C   0  0  0  0  0  0  0  0  0  0  0  0
   -6.1104   -0.0548    1.8818 C   0  0  0  0  0  0  0  0  0  0  0  0
   -7.4070   -0.2374    1.3965 C   0  0  0  0  0  0  0  0  0  0  0  0
   -7.6146   -0.5454    0.0511 C   0  0  0  0  0  0  0  0  0  0  0  0
   -6.5270   -0.6720   -0.8168 C   0  0  0  0  0  0  0  0  0  0  0  0
   -5.2129   -0.4912   -0.3413 C   0  0  0  0  0  0  0  0  0  0  0  0
   -4.0981   -0.6027   -1.1918 C   0  0  0  0  0  0  0  0  0  0  0  0
   -4.2665   -0.8514   -2.4184 O   0  0  0  0  0  0  0  0  0  0  0  0
  1  2  1  0
  2  3  1  0
  3  4  1  0
  4  5  2  0
  4  6  1  0
  6  7  4  0
  7  8  1  0
  8  9  4  0
  9 10  4  0
 10 11  4  0
 11 12  1  0
 12 13  1  0
 13 14  4  0
 14 15  4  0
 15 16  4  0
 16 17  1  0
 17 18  1  0
 18 19  1  0
 18 20  1  0
 18 21  1  0
 16 22  4  0
 22 23  4  0
 11 24  4  0
 24 25  4  0
  7 26  4  0
 26 27  4  0
 27 28  4  0
 28 29  4  0
 29 30  4  0
 30 31  4  0
 31 32  4  0
 32 33  4  0
 33 34  2  0
 23 13  4  0
 25  8  4  0
 32 27  4  0
 33  6  4  0
M  END
>  <SMILES>  (5) 
CCOC(=O)c4c(c2ccc(Cc1ccc(OC(F)(F)F)cc1)cc2)[nH]c3ccccc3c4=O

>  <NumConformers>  (5) 
48

>  <EnergyUnits>  (5) 
RDKit_forcefield

>  <Processing_Time>  (5) 
83.7s

>  <Original_Conformers>  (5) 
500

>  <Total_Conformers>  (5) 
48

>  <Energy>  (5) 
66.855159080428976

>  <Energy_Unit>  (5) 
RDKit_forcefield

>  <Rank>  (5) 
5

>  <Conformer_Index>  (5) 
4

$$$$
GN-171
     RDKit          3D

 34 37  0  0  0  0  0  0  0  0999 V2000
    1.3858    0.8111   -2.0216 C   0  0  0  0  0  0  0  0  0  0  0  0
    0.7036   -0.5424   -2.1809 C   0  0  0  0  0  0  0  0  0  0  0  0
   -0.4555   -0.6234   -1.3525 O   0  0  0  0  0  0  0  0  0  0  0  0
   -1.6730    0.0026   -1.6568 C   0  0  0  0  0  0  0  0  0  0  0  0
   -1.8033    0.6459   -2.7356 O   0  0  0  0  0  0  0  0  0  0  0  0
   -2.8229   -0.1219   -0.7222 C   0  0  0  0  0  0  0  0  0  0  0  0
   -2.6296   -0.1387    0.6819 C   0  0  0  0  0  0  0  0  0  0  0  0
   -1.2997    0.1013    1.2792 C   0  0  0  0  0  0  0  0  0  0  0  0
   -0.6640    1.3408    1.1162 C   0  0  0  0  0  0  0  0  0  0  0  0
    0.6167    1.5471    1.6339 C   0  0  0  0  0  0  0  0  0  0  0  0
    1.2792    0.5147    2.3164 C   0  0  0  0  0  0  0  0  0  0  0  0
    2.7151    0.6857    2.7305 C   0  0  0  0  0  0  0  0  0  0  0  0
    3.6128    0.3569    1.5675 C   0  0  0  0  0  0  0  0  0  0  0  0
    3.9554   -0.9770    1.2952 C   0  0  0  0  0  0  0  0  0  0  0  0
    4.7010   -1.2958    0.1569 C   0  0  0  0  0  0  0  0  0  0  0  0
    5.1052   -0.2939   -0.7334 C   0  0  0  0  0  0  0  0  0  0  0  0
    5.8293   -0.6748   -1.8744 O   0  0  0  0  0  0  0  0  0  0  0  0
    6.2910    0.2121   -2.8915 C   0  0  0  0  0  0  0  0  0  0  0  0
    5.2200    0.8622   -3.4800 F   0  0  0  0  0  0  0  0  0  0  0  0
    6.9516   -0.5221   -3.8576 F   0  0  0  0  0  0  0  0  0  0  0  0
    7.1684    1.1387   -2.3575 F   0  0  0  0  0  0  0  0  0  0  0  0
    4.7665    1.0455   -0.4579 C   0  0  0  0  0  0  0  0  0  0  0  0
    4.0233    1.3654    0.6822 C   0  0  0  0  0  0  0  0  0  0  0  0
    0.6307   -0.7175    2.4987 C   0  0  0  0  0  0  0  0  0  0  0  0
   -0.6577   -0.9178    1.9955 C   0  0  0  0  0  0  0  0  0  0  0  0
   -3.6897   -0.3393    1.5167 N   0  0  0  0  0  0  0  0  0  0  0  0
   -4.9592   -0.4942    1.0484 C   0  0  0  0  0  0  0  0  0  0  0  0
   -6.0253   -0.6792    1.9443 C   0  0  0  0  0  0  0  0  0  0  0  0
   -7.3290   -0.8307    1.4664 C   0  0  0  0  0  0  0  0  0  0  0  0
   -7.5805   -0.8004    0.0932 C   0  0  0  0  0  0  0  0  0  0  0  0
   -6.5300   -0.6176   -0.8098 C   0  0  0  0  0  0  0  0  0  0  0  0
   -5.2102   -0.4601   -0.3424 C   0  0  0  0  0  0  0  0  0  0  0  0
   -4.1313   -0.2784   -1.2264 C   0  0  0  0  0  0  0  0  0  0  0  0
   -4.3327   -0.2768   -2.4735 O   0  0  0  0  0  0  0  0  0  0  0  0
  1  2  1  0
  2  3  1  0
  3  4  1  0
  4  5  2  0
  4  6  1  0
  6  7  4  0
  7  8  1  0
  8  9  4  0
  9 10  4  0
 10 11  4  0
 11 12  1  0
 12 13  1  0
 13 14  4  0
 14 15  4  0
 15 16  4  0
 16 17  1  0
 17 18  1  0
 18 19  1  0
 18 20  1  0
 18 21  1  0
 16 22  4  0
 22 23  4  0
 11 24  4  0
 24 25  4  0
  7 26  4  0
 26 27  4  0
 27 28  4  0
 28 29  4  0
 29 30  4  0
 30 31  4  0
 31 32  4  0
 32 33  4  0
 33 34  2  0
 23 13  4  0
 25  8  4  0
 32 27  4  0
 33  6  4  0
M  END
>  <SMILES>  (6) 
CCOC(=O)c4c(c2ccc(Cc1ccc(OC(F)(F)F)cc1)cc2)[nH]c3ccccc3c4=O

>  <NumConformers>  (6) 
48

>  <EnergyUnits>  (6) 
RDKit_forcefield

>  <Processing_Time>  (6) 
83.7s

>  <Original_Conformers>  (6) 
500

>  <Total_Conformers>  (6) 
48

>  <Energy>  (6) 
66.956012811618848

>  <Energy_Unit>  (6) 
RDKit_forcefield

>  <Rank>  (6) 
6

>  <Conformer_Index>  (6) 
5

$$$$
GN-171
     RDKit          3D

 34 37  0  0  0  0  0  0  0  0999 V2000
    1.1424    1.3274   -2.1120 C   0  0  0  0  0  0  0  0  0  0  0  0
    0.4527    0.0223   -2.4878 C   0  0  0  0  0  0  0  0  0  0  0  0
   -0.6415   -0.2393   -1.6112 O   0  0  0  0  0  0  0  0  0  0  0  0
   -1.8906    0.3860   -1.7203 C   0  0  0  0  0  0  0  0  0  0  0  0
   -2.1149    1.1993   -2.6586 O   0  0  0  0  0  0  0  0  0  0  0  0
   -2.9617    0.0619   -0.7429 C   0  0  0  0  0  0  0  0  0  0  0  0
   -2.6603   -0.1643    0.6234 C   0  0  0  0  0  0  0  0  0  0  0  0
   -1.3094    0.0929    1.1682 C   0  0  0  0  0  0  0  0  0  0  0  0
   -0.5824   -0.9431    1.7710 C   0  0  0  0  0  0  0  0  0  0  0  0
    0.7050   -0.7057    2.2608 C   0  0  0  0  0  0  0  0  0  0  0  0
    1.2701    0.5775    2.1762 C   0  0  0  0  0  0  0  0  0  0  0  0
    2.6869    0.8150    2.6205 C   0  0  0  0  0  0  0  0  0  0  0  0
    3.6262    0.6083    1.4628 C   0  0  0  0  0  0  0  0  0  0  0  0
    3.9366    1.6736    0.6030 C   0  0  0  0  0  0  0  0  0  0  0  0
    4.7604    1.4669   -0.5068 C   0  0  0  0  0  0  0  0  0  0  0  0
    5.2821    0.1964   -0.7807 C   0  0  0  0  0  0  0  0  0  0  0  0
    6.1043    0.0468   -1.9093 O   0  0  0  0  0  0  0  0  0  0  0  0
    6.7018   -1.1752   -2.3373 C   0  0  0  0  0  0  0  0  0  0  0  0
    7.5467   -1.6630   -1.3565 F   0  0  0  0  0  0  0  0  0  0  0  0
    5.7230   -2.1095   -2.6238 F   0  0  0  0  0  0  0  0  0  0  0  0
    7.4387   -0.9378   -3.4814 F   0  0  0  0  0  0  0  0  0  0  0  0
    4.9643   -0.8751    0.0776 C   0  0  0  0  0  0  0  0  0  0  0  0
    4.1387   -0.6691    1.1870 C   0  0  0  0  0  0  0  0  0  0  0  0
    0.5314    1.6179    1.5931 C   0  0  0  0  0  0  0  0  0  0  0  0
   -0.7508    1.3780    1.0949 C   0  0  0  0  0  0  0  0  0  0  0  0
   -3.6405   -0.5702    1.4806 N   0  0  0  0  0  0  0  0  0  0  0  0
   -4.9324   -0.7297    1.0794 C   0  0  0  0  0  0  0  0  0  0  0  0
   -5.9136   -1.1343    1.9995 C   0  0  0  0  0  0  0  0  0  0  0  0
   -7.2413   -1.2851    1.5930 C   0  0  0  0  0  0  0  0  0  0  0  0
   -7.6022   -1.0324    0.2683 C   0  0  0  0  0  0  0  0  0  0  0  0
   -6.6368   -0.6312   -0.6584 C   0  0  0  0  0  0  0  0  0  0  0  0
   -5.2930   -0.4758   -0.2632 C   0  0  0  0  0  0  0  0  0  0  0  0
   -4.2960   -0.0847   -1.1751 C   0  0  0  0  0  0  0  0  0  0  0  0
   -4.5940    0.1162   -2.3859 O   0  0  0  0  0  0  0  0  0  0  0  0
  1  2  1  0
  2  3  1  0
  3  4  1  0
  4  5  2  0
  4  6  1  0
  6  7  4  0
  7  8  1  0
  8  9  4  0
  9 10  4  0
 10 11  4  0
 11 12  1  0
 12 13  1  0
 13 14  4  0
 14 15  4  0
 15 16  4  0
 16 17  1  0
 17 18  1  0
 18 19  1  0
 18 20  1  0
 18 21  1  0
 16 22  4  0
 22 23  4  0
 11 24  4  0
 24 25  4  0
  7 26  4  0
 26 27  4  0
 27 28  4  0
 28 29  4  0
 29 30  4  0
 30 31  4  0
 31 32  4  0
 32 33  4  0
 33 34  2  0
 23 13  4  0
 25  8  4  0
 32 27  4  0
 33  6  4  0
M  END
>  <SMILES>  (7) 
CCOC(=O)c4c(c2ccc(Cc1ccc(OC(F)(F)F)cc1)cc2)[nH]c3ccccc3c4=O

>  <NumConformers>  (7) 
48

>  <EnergyUnits>  (7) 
RDKit_forcefield

>  <Processing_Time>  (7) 
83.7s

>  <Original_Conformers>  (7) 
500

>  <Total_Conformers>  (7) 
48

>  <Energy>  (7) 
67.23017962006827

>  <Energy_Unit>  (7) 
RDKit_forcefield

>  <Rank>  (7) 
7

>  <Conformer_Index>  (7) 
6

$$$$
GN-171
     RDKit          3D

 34 37  0  0  0  0  0  0  0  0999 V2000
   -0.6055    4.6994    0.5312 C   0  0  0  0  0  0  0  0  0  0  0  0
   -1.7532    4.2886   -0.3773 C   0  0  0  0  0  0  0  0  0  0  0  0
   -2.1722    2.9712   -0.0417 O   0  0  0  0  0  0  0  0  0  0  0  0
   -3.1674    2.2860   -0.7460 C   0  0  0  0  0  0  0  0  0  0  0  0
   -3.8047    2.8695   -1.6658 O   0  0  0  0  0  0  0  0  0  0  0  0
   -3.4762    0.8720   -0.4027 C   0  0  0  0  0  0  0  0  0  0  0  0
   -2.4663   -0.0101    0.0620 C   0  0  0  0  0  0  0  0  0  0  0  0
   -1.0405    0.3895    0.1076 C   0  0  0  0  0  0  0  0  0  0  0  0
   -0.3748    0.7950   -1.0604 C   0  0  0  0  0  0  0  0  0  0  0  0
    0.9658    1.1859   -1.0076 C   0  0  0  0  0  0  0  0  0  0  0  0
    1.6596    1.1734    0.2125 C   0  0  0  0  0  0  0  0  0  0  0  0
    3.1113    1.5641    0.2637 C   0  0  0  0  0  0  0  0  0  0  0  0
    3.9812    0.3615    0.0181 C   0  0  0  0  0  0  0  0  0  0  0  0
    4.3524    0.0107   -1.2887 C   0  0  0  0  0  0  0  0  0  0  0  0
    5.1273   -1.1293   -1.5194 C   0  0  0  0  0  0  0  0  0  0  0  0
    5.5357   -1.9416   -0.4548 C   0  0  0  0  0  0  0  0  0  0  0  0
    6.3110   -3.0756   -0.7459 O   0  0  0  0  0  0  0  0  0  0  0  0
    6.8032   -4.0060    0.2161 C   0  0  0  0  0  0  0  0  0  0  0  0
    5.7499   -4.5965    0.8913 F   0  0  0  0  0  0  0  0  0  0  0  0
    7.5201   -4.9893   -0.4376 F   0  0  0  0  0  0  0  0  0  0  0  0
    7.6395   -3.3663    1.1134 F   0  0  0  0  0  0  0  0  0  0  0  0
    5.1543   -1.5954    0.8563 C   0  0  0  0  0  0  0  0  0  0  0  0
    4.3792   -0.4551    1.0875 C   0  0  0  0  0  0  0  0  0  0  0  0
    1.0024    0.7365    1.3735 C   0  0  0  0  0  0  0  0  0  0  0  0
   -0.3386    0.3463    1.3209 C   0  0  0  0  0  0  0  0  0  0  0  0
   -2.7940   -1.2767    0.4493 N   0  0  0  0  0  0  0  0  0  0  0  0
   -4.0687   -1.7506    0.3784 C   0  0  0  0  0  0  0  0  0  0  0  0
   -4.3568   -3.0670    0.7760 C   0  0  0  0  0  0  0  0  0  0  0  0
   -5.6622   -3.5570    0.6993 C   0  0  0  0  0  0  0  0  0  0  0  0
   -6.6902   -2.7403    0.2258 C   0  0  0  0  0  0  0  0  0  0  0  0
   -6.4186   -1.4291   -0.1733 C   0  0  0  0  0  0  0  0  0  0  0  0
   -5.1059   -0.9213   -0.1022 C   0  0  0  0  0  0  0  0  0  0  0  0
   -4.8023    0.3962   -0.4881 C   0  0  0  0  0  0  0  0  0  0  0  0
   -5.7237    1.1595   -0.8920 O   0  0  0  0  0  0  0  0  0  0  0  0
  1  2  1  0
  2  3  1  0
  3  4  1  0
  4  5  2  0
  4  6  1  0
  6  7  4  0
  7  8  1  0
  8  9  4  0
  9 10  4  0
 10 11  4  0
 11 12  1  0
 12 13  1  0
 13 14  4  0
 14 15  4  0
 15 16  4  0
 16 17  1  0
 17 18  1  0
 18 19  1  0
 18 20  1  0
 18 21  1  0
 16 22  4  0
 22 23  4  0
 11 24  4  0
 24 25  4  0
  7 26  4  0
 26 27  4  0
 27 28  4  0
 28 29  4  0
 29 30  4  0
 30 31  4  0
 31 32  4  0
 32 33  4  0
 33 34  2  0
 23 13  4  0
 25  8  4  0
 32 27  4  0
 33  6  4  0
M  END
>  <SMILES>  (8) 
CCOC(=O)c4c(c2ccc(Cc1ccc(OC(F)(F)F)cc1)cc2)[nH]c3ccccc3c4=O

>  <NumConformers>  (8) 
48

>  <EnergyUnits>  (8) 
RDKit_forcefield

>  <Processing_Time>  (8) 
83.7s

>  <Original_Conformers>  (8) 
500

>  <Total_Conformers>  (8) 
48

>  <Energy>  (8) 
67.527315722106991

>  <Energy_Unit>  (8) 
RDKit_forcefield

>  <Rank>  (8) 
8

>  <Conformer_Index>  (8) 
7

$$$$
GN-171
     RDKit          3D

 34 37  0  0  0  0  0  0  0  0999 V2000
   -0.6152    4.6749   -0.6447 C   0  0  0  0  0  0  0  0  0  0  0  0
   -1.7529    4.3036    0.2928 C   0  0  0  0  0  0  0  0  0  0  0  0
   -2.1723    2.9718    0.0209 O   0  0  0  0  0  0  0  0  0  0  0  0
   -3.1563    2.3155    0.7671 C   0  0  0  0  0  0  0  0  0  0  0  0
   -3.7807    2.9356    1.6717 O   0  0  0  0  0  0  0  0  0  0  0  0
   -3.4677    0.8884    0.4867 C   0  0  0  0  0  0  0  0  0  0  0  0
   -2.4626   -0.0114    0.0467 C   0  0  0  0  0  0  0  0  0  0  0  0
   -1.0375    0.3863   -0.0298 C   0  0  0  0  0  0  0  0  0  0  0  0
   -0.3608    0.8417    1.1132 C   0  0  0  0  0  0  0  0  0  0  0  0
    0.9787    1.2306    1.0310 C   0  0  0  0  0  0  0  0  0  0  0  0
    1.6610    1.1654   -0.1939 C   0  0  0  0  0  0  0  0  0  0  0  0
    3.1124    1.5524   -0.2747 C   0  0  0  0  0  0  0  0  0  0  0  0
    3.9835    0.3668    0.0400 C   0  0  0  0  0  0  0  0  0  0  0  0
    4.3751    0.1064    1.3618 C   0  0  0  0  0  0  0  0  0  0  0  0
    5.1509   -1.0175    1.6587 C   0  0  0  0  0  0  0  0  0  0  0  0
    5.5392   -1.9035    0.6468 C   0  0  0  0  0  0  0  0  0  0  0  0
    6.3154   -3.0180    1.0037 O   0  0  0  0  0  0  0  0  0  0  0  0
    6.7810   -4.0202    0.1026 C   0  0  0  0  0  0  0  0  0  0  0  0
    7.5052   -4.9587    0.8119 F   0  0  0  0  0  0  0  0  0  0  0  0
    5.7094   -4.6499   -0.5046 F   0  0  0  0  0  0  0  0  0  0  0  0
    7.6021   -3.4552   -0.8567 F   0  0  0  0  0  0  0  0  0  0  0  0
    5.1374   -1.6480   -0.6788 C   0  0  0  0  0  0  0  0  0  0  0  0
    4.3620   -0.5233   -0.9764 C   0  0  0  0  0  0  0  0  0  0  0  0
    0.9931    0.6789   -1.3288 C   0  0  0  0  0  0  0  0  0  0  0  0
   -0.3471    0.2914   -1.2468 C   0  0  0  0  0  0  0  0  0  0  0  0
   -2.7938   -1.2927   -0.2858 N   0  0  0  0  0  0  0  0  0  0  0  0
   -4.0672   -1.7636   -0.1811 C   0  0  0  0  0  0  0  0  0  0  0  0
   -4.3591   -3.0948   -0.5226 C   0  0  0  0  0  0  0  0  0  0  0  0
   -5.6631   -3.5818   -0.4104 C   0  0  0  0  0  0  0  0  0  0  0  0
   -6.6858   -2.7473    0.0430 C   0  0  0  0  0  0  0  0  0  0  0  0
   -6.4105   -1.4212    0.3861 C   0  0  0  0  0  0  0  0  0  0  0  0
   -5.0993   -0.9162    0.2786 C   0  0  0  0  0  0  0  0  0  0  0  0
   -4.7922    0.4160    0.6073 C   0  0  0  0  0  0  0  0  0  0  0  0
   -5.7093    1.1946    0.9915 O   0  0  0  0  0  0  0  0  0  0  0  0
  1  2  1  0
  2  3  1  0
  3  4  1  0
  4  5  2  0
  4  6  1  0
  6  7  4  0
  7  8  1  0
  8  9  4  0
  9 10  4  0
 10 11  4  0
 11 12  1  0
 12 13  1  0
 13 14  4  0
 14 15  4  0
 15 16  4  0
 16 17  1  0
 17 18  1  0
 18 19  1  0
 18 20  1  0
 18 21  1  0
 16 22  4  0
 22 23  4  0
 11 24  4  0
 24 25  4  0
  7 26  4  0
 26 27  4  0
 27 28  4  0
 28 29  4  0
 29 30  4  0
 30 31  4  0
 31 32  4  0
 32 33  4  0
 33 34  2  0
 23 13  4  0
 25  8  4  0
 32 27  4  0
 33  6  4  0
M  END
>  <SMILES>  (9) 
CCOC(=O)c4c(c2ccc(Cc1ccc(OC(F)(F)F)cc1)cc2)[nH]c3ccccc3c4=O

>  <NumConformers>  (9) 
48

>  <EnergyUnits>  (9) 
RDKit_forcefield

>  <Processing_Time>  (9) 
83.7s

>  <Original_Conformers>  (9) 
500

>  <Total_Conformers>  (9) 
48

>  <Energy>  (9) 
67.529659074796342

>  <Energy_Unit>  (9) 
RDKit_forcefield

>  <Rank>  (9) 
9

>  <Conformer_Index>  (9) 
8

$$$$
GN-171
     RDKit          3D

 34 37  0  0  0  0  0  0  0  0999 V2000
   -0.5504    4.6752    0.0733 C   0  0  0  0  0  0  0  0  0  0  0  0
   -1.6408    4.1599   -0.8522 C   0  0  0  0  0  0  0  0  0  0  0  0
   -2.1115    2.9049   -0.3753 O   0  0  0  0  0  0  0  0  0  0  0  0
   -3.0627    2.1394   -1.0574 C   0  0  0  0  0  0  0  0  0  0  0  0
   -3.6059    2.5932   -2.1022 O   0  0  0  0  0  0  0  0  0  0  0  0
   -3.4354    0.7937   -0.5444 C   0  0  0  0  0  0  0  0  0  0  0  0
   -2.4915   -0.0267    0.1270 C   0  0  0  0  0  0  0  0  0  0  0  0
   -1.0645    0.3562    0.2409 C   0  0  0  0  0  0  0  0  0  0  0  0
   -0.2936    0.5910   -0.9090 C   0  0  0  0  0  0  0  0  0  0  0  0
    1.0446    0.9761   -0.7938 C   0  0  0  0  0  0  0  0  0  0  0  0
    1.6323    1.1243    0.4722 C   0  0  0  0  0  0  0  0  0  0  0  0
    3.0802    1.5140    0.5941 C   0  0  0  0  0  0  0  0  0  0  0  0
    3.9576    0.2969    0.4819 C   0  0  0  0  0  0  0  0  0  0  0  0
    4.2166   -0.4952    1.6107 C   0  0  0  0  0  0  0  0  0  0  0  0
    5.0014   -1.6465    1.4991 C   0  0  0  0  0  0  0  0  0  0  0  0
    5.5339   -2.0294    0.2621 C   0  0  0  0  0  0  0  0  0  0  0  0
    6.3163   -3.1945    0.2095 O   0  0  0  0  0  0  0  0  0  0  0  0
    6.9382   -3.7170   -0.9623 C   0  0  0  0  0  0  0  0  0  0  0  0
    7.6251   -4.8682   -0.6292 F   0  0  0  0  0  0  0  0  0  0  0  0
    5.9817   -4.0280   -1.9119 F   0  0  0  0  0  0  0  0  0  0  0  0
    7.8337   -2.7972   -1.4773 F   0  0  0  0  0  0  0  0  0  0  0  0
    5.2655   -1.2400   -0.8732 C   0  0  0  0  0  0  0  0  0  0  0  0
    4.4788   -0.0895   -0.7624 C   0  0  0  0  0  0  0  0  0  0  0  0
    0.8712    0.8537    1.6203 C   0  0  0  0  0  0  0  0  0  0  0  0
   -0.4683    0.4721    1.5050 C   0  0  0  0  0  0  0  0  0  0  0  0
   -2.8845   -1.2190    0.6619 N   0  0  0  0  0  0  0  0  0  0  0  0
   -4.1615   -1.6788    0.5509 C   0  0  0  0  0  0  0  0  0  0  0  0
   -4.5176   -2.9185    1.1079 C   0  0  0  0  0  0  0  0  0  0  0  0
   -5.8255   -3.3942    0.9919 C   0  0  0  0  0  0  0  0  0  0  0  0
   -6.7880   -2.6396    0.3198 C   0  0  0  0  0  0  0  0  0  0  0  0
   -6.4481   -1.4053   -0.2402 C   0  0  0  0  0  0  0  0  0  0  0  0
   -5.1323   -0.9128   -0.1312 C   0  0  0  0  0  0  0  0  0  0  0  0
   -4.7620    0.3298   -0.6748 C   0  0  0  0  0  0  0  0  0  0  0  0
   -5.6258    1.0398   -1.2618 O   0  0  0  0  0  0  0  0  0  0  0  0
  1  2  1  0
  2  3  1  0
  3  4  1  0
  4  5  2  0
  4  6  1  0
  6  7  4  0
  7  8  1  0
  8  9  4  0
  9 10  4  0
 10 11  4  0
 11 12  1  0
 12 13  1  0
 13 14  4  0
 14 15  4  0
 15 16  4  0
 16 17  1  0
 17 18  1  0
 18 19  1  0
 18 20  1  0
 18 21  1  0
 16 22  4  0
 22 23  4  0
 11 24  4  0
 24 25  4  0
  7 26  4  0
 26 27  4  0
 27 28  4  0
 28 29  4  0
 29 30  4  0
 30 31  4  0
 31 32  4  0
 32 33  4  0
 33 34  2  0
 23 13  4  0
 25  8  4  0
 32 27  4  0
 33  6  4  0
M  END
>  <SMILES>  (10) 
CCOC(=O)c4c(c2ccc(Cc1ccc(OC(F)(F)F)cc1)cc2)[nH]c3ccccc3c4=O

>  <NumConformers>  (10) 
48

>  <EnergyUnits>  (10) 
RDKit_forcefield

>  <Processing_Time>  (10) 
83.7s

>  <Original_Conformers>  (10) 
500

>  <Total_Conformers>  (10) 
48

>  <Energy>  (10) 
67.559395384072772

>  <Energy_Unit>  (10) 
RDKit_forcefield

>  <Rank>  (10) 
10

>  <Conformer_Index>  (10) 
9

$$$$
GN-171
     RDKit          3D

 34 37  0  0  0  0  0  0  0  0999 V2000
    0.8366    2.9579   -0.5691 C   0  0  0  0  0  0  0  0  0  0  0  0
    0.3915    2.5073    0.8169 C   0  0  0  0  0  0  0  0  0  0  0  0
   -0.6441    1.5312    0.7238 O   0  0  0  0  0  0  0  0  0  0  0  0
   -1.9756    1.8407    0.4150 C   0  0  0  0  0  0  0  0  0  0  0  0
   -2.3192    3.0421    0.2374 O   0  0  0  0  0  0  0  0  0  0  0  0
   -2.9910    0.7550    0.3302 C   0  0  0  0  0  0  0  0  0  0  0  0
   -2.6432   -0.5483   -0.1089 C   0  0  0  0  0  0  0  0  0  0  0  0
   -1.3025   -0.8552   -0.6570 C   0  0  0  0  0  0  0  0  0  0  0  0
   -0.5163   -1.8560   -0.0686 C   0  0  0  0  0  0  0  0  0  0  0  0
    0.7696   -2.1156   -0.5509 C   0  0  0  0  0  0  0  0  0  0  0  0
    1.2783   -1.3894   -1.6396 C   0  0  0  0  0  0  0  0  0  0  0  0
    2.7035   -1.5873   -2.0797 C   0  0  0  0  0  0  0  0  0  0  0  0
    3.6285   -0.8197   -1.1736 C   0  0  0  0  0  0  0  0  0  0  0  0
    4.2612   -1.4601   -0.0991 C   0  0  0  0  0  0  0  0  0  0  0  0
    5.0727   -0.7343    0.7766 C   0  0  0  0  0  0  0  0  0  0  0  0
    5.2514    0.6514    0.5995 C   0  0  0  0  0  0  0  0  0  0  0  0
    6.0506    1.4313    1.4514 O   0  0  0  0  0  0  0  0  0  0  0  0
    6.8091    0.9319    2.5519 C   0  0  0  0  0  0  0  0  0  0  0  0
    7.4900    1.9775    3.1416 F   0  0  0  0  0  0  0  0  0  0  0  0
    5.9698    0.3617    3.4911 F   0  0  0  0  0  0  0  0  0  0  0  0
    7.7303   -0.0024    2.1117 F   0  0  0  0  0  0  0  0  0  0  0  0
    4.6088    1.2877   -0.4666 C   0  0  0  0  0  0  0  0  0  0  0  0
    3.8050    0.5608   -1.3478 C   0  0  0  0  0  0  0  0  0  0  0  0
    0.4752   -0.4162   -2.2520 C   0  0  0  0  0  0  0  0  0  0  0  0
   -0.8090   -0.1554   -1.7685 C   0  0  0  0  0  0  0  0  0  0  0  0
   -3.5666   -1.5516   -0.0641 N   0  0  0  0  0  0  0  0  0  0  0  0
   -4.8459   -1.3435    0.3516 C   0  0  0  0  0  0  0  0  0  0  0  0
   -5.7646   -2.4065    0.3751 C   0  0  0  0  0  0  0  0  0  0  0  0
   -7.0797   -2.1945    0.7897 C   0  0  0  0  0  0  0  0  0  0  0  0
   -7.4914   -0.9212    1.1774 C   0  0  0  0  0  0  0  0  0  0  0  0
   -6.5885    0.1465    1.1637 C   0  0  0  0  0  0  0  0  0  0  0  0
   -5.2561   -0.0547    0.7545 C   0  0  0  0  0  0  0  0  0  0  0  0
   -4.3180    0.9929    0.7497 C   0  0  0  0  0  0  0  0  0  0  0  0
   -4.6616    2.1437    1.1446 O   0  0  0  0  0  0  0  0  0  0  0  0
  1  2  1  0
  2  3  1  0
  3  4  1  0
  4  5  2  0
  4  6  1  0
  6  7  4  0
  7  8  1  0
  8  9  4  0
  9 10  4  0
 10 11  4  0
 11 12  1  0
 12 13  1  0
 13 14  4  0
 14 15  4  0
 15 16  4  0
 16 17  1  0
 17 18  1  0
 18 19  1  0
 18 20  1  0
 18 21  1  0
 16 22  4  0
 22 23  4  0
 11 24  4  0
 24 25  4  0
  7 26  4  0
 26 27  4  0
 27 28  4  0
 28 29  4  0
 29 30  4  0
 30 31  4  0
 31 32  4  0
 32 33  4  0
 33 34  2  0
 23 13  4  0
 25  8  4  0
 32 27  4  0
 33  6  4  0
M  END
>  <SMILES>  (11) 
CCOC(=O)c4c(c2ccc(Cc1ccc(OC(F)(F)F)cc1)cc2)[nH]c3ccccc3c4=O

>  <NumConformers>  (11) 
48

>  <EnergyUnits>  (11) 
RDKit_forcefield

>  <Processing_Time>  (11) 
83.7s

>  <Original_Conformers>  (11) 
500

>  <Total_Conformers>  (11) 
48

>  <Energy>  (11) 
67.743479558320658

>  <Energy_Unit>  (11) 
RDKit_forcefield

>  <Rank>  (11) 
11

>  <Conformer_Index>  (11) 
10

$$$$
GN-171
     RDKit          3D

 34 37  0  0  0  0  0  0  0  0999 V2000
   -0.6142    2.8414   -3.6301 C   0  0  0  0  0  0  0  0  0  0  0  0
   -1.7103    3.2707   -2.6655 C   0  0  0  0  0  0  0  0  0  0  0  0
   -2.1624    2.1355   -1.9337 O   0  0  0  0  0  0  0  0  0  0  0  0
   -3.0508    2.2215   -0.8536 C   0  0  0  0  0  0  0  0  0  0  0  0
   -3.5450    3.3361   -0.5301 O   0  0  0  0  0  0  0  0  0  0  0  0
   -3.4238    0.9911   -0.1043 C   0  0  0  0  0  0  0  0  0  0  0  0
   -2.5022   -0.0740    0.0652 C   0  0  0  0  0  0  0  0  0  0  0  0
   -1.0873    0.0380   -0.3609 C   0  0  0  0  0  0  0  0  0  0  0  0
   -0.2698    1.0668    0.1334 C   0  0  0  0  0  0  0  0  0  0  0  0
    1.0616    1.1671   -0.2775 C   0  0  0  0  0  0  0  0  0  0  0  0
    1.5965    0.2375   -1.1816 C   0  0  0  0  0  0  0  0  0  0  0  0
    3.0394    0.3285   -1.5966 C   0  0  0  0  0  0  0  0  0  0  0  0
    3.9289   -0.2614   -0.5333 C   0  0  0  0  0  0  0  0  0  0  0  0
    4.6216    0.5735    0.3591 C   0  0  0  0  0  0  0  0  0  0  0  0
    5.4327    0.0234    1.3575 C   0  0  0  0  0  0  0  0  0  0  0  0
    5.5573   -1.3756    1.4803 C   0  0  0  0  0  0  0  0  0  0  0  0
    6.3599   -1.9849    2.4586 O   0  0  0  0  0  0  0  0  0  0  0  0
    7.0922   -1.2975    3.4721 C   0  0  0  0  0  0  0  0  0  0  0  0
    6.2282   -0.5708    4.2721 F   0  0  0  0  0  0  0  0  0  0  0  0
    7.7491   -2.2236    4.2567 F   0  0  0  0  0  0  0  0  0  0  0  0
    8.0273   -0.4538    2.8999 F   0  0  0  0  0  0  0  0  0  0  0  0
    4.8541   -2.2040    0.5954 C   0  0  0  0  0  0  0  0  0  0  0  0
    4.0424   -1.6554   -0.4013 C   0  0  0  0  0  0  0  0  0  0  0  0
    0.7872   -0.8074   -1.6511 C   0  0  0  0  0  0  0  0  0  0  0  0
   -0.5456   -0.9056   -1.2436 C   0  0  0  0  0  0  0  0  0  0  0  0
   -2.9039   -1.2302    0.6664 N   0  0  0  0  0  0  0  0  0  0  0  0
   -4.1664   -1.3968    1.1517 C   0  0  0  0  0  0  0  0  0  0  0  0
   -4.5316   -2.6021    1.7753 C   0  0  0  0  0  0  0  0  0  0  0  0
   -5.8231   -2.7738    2.2804 C   0  0  0  0  0  0  0  0  0  0  0  0
   -6.7606   -1.7465    2.1669 C   0  0  0  0  0  0  0  0  0  0  0  0
   -6.4120   -0.5425    1.5479 C   0  0  0  0  0  0  0  0  0  0  0  0
   -5.1119   -0.3552    1.0357 C   0  0  0  0  0  0  0  0  0  0  0  0
   -4.7338    0.8399    0.3994 C   0  0  0  0  0  0  0  0  0  0  0  0
   -5.5765    1.7702    0.2614 O   0  0  0  0  0  0  0  0  0  0  0  0
  1  2  1  0
  2  3  1  0
  3  4  1  0
  4  5  2  0
  4  6  1  0
  6  7  4  0
  7  8  1  0
  8  9  4  0
  9 10  4  0
 10 11  4  0
 11 12  1  0
 12 13  1  0
 13 14  4  0
 14 15  4  0
 15 16  4  0
 16 17  1  0
 17 18  1  0
 18 19  1  0
 18 20  1  0
 18 21  1  0
 16 22  4  0
 22 23  4  0
 11 24  4  0
 24 25  4  0
  7 26  4  0
 26 27  4  0
 27 28  4  0
 28 29  4  0
 29 30  4  0
 30 31  4  0
 31 32  4  0
 32 33  4  0
 33 34  2  0
 23 13  4  0
 25  8  4  0
 32 27  4  0
 33  6  4  0
M  END
>  <SMILES>  (12) 
CCOC(=O)c4c(c2ccc(Cc1ccc(OC(F)(F)F)cc1)cc2)[nH]c3ccccc3c4=O

>  <NumConformers>  (12) 
48

>  <EnergyUnits>  (12) 
RDKit_forcefield

>  <Processing_Time>  (12) 
83.7s

>  <Original_Conformers>  (12) 
500

>  <Total_Conformers>  (12) 
48

>  <Energy>  (12) 
67.858547018522316

>  <Energy_Unit>  (12) 
RDKit_forcefield

>  <Rank>  (12) 
12

>  <Conformer_Index>  (12) 
11

$$$$
GN-171
     RDKit          3D

 34 37  0  0  0  0  0  0  0  0999 V2000
    0.8508    2.2197   -2.2902 C   0  0  0  0  0  0  0  0  0  0  0  0
    0.8466    1.6956   -0.8602 C   0  0  0  0  0  0  0  0  0  0  0  0
   -0.3238    0.9210   -0.6102 O   0  0  0  0  0  0  0  0  0  0  0  0
   -1.5817    1.4724   -0.3310 C   0  0  0  0  0  0  0  0  0  0  0  0
   -1.7498    2.7217   -0.3844 O   0  0  0  0  0  0  0  0  0  0  0  0
   -2.7179    0.5808    0.0350 C   0  0  0  0  0  0  0  0  0  0  0  0
   -2.5038   -0.6284    0.7456 C   0  0  0  0  0  0  0  0  0  0  0  0
   -1.1620   -1.0034    1.2370 C   0  0  0  0  0  0  0  0  0  0  0  0
   -0.4999   -2.1093    0.6870 C   0  0  0  0  0  0  0  0  0  0  0  0
    0.8301   -2.3705    1.0268 C   0  0  0  0  0  0  0  0  0  0  0  0
    1.5047   -1.5407    1.9372 C   0  0  0  0  0  0  0  0  0  0  0  0
    2.9841   -1.6997    2.1544 C   0  0  0  0  0  0  0  0  0  0  0  0
    3.7226   -0.7897    1.2093 C   0  0  0  0  0  0  0  0  0  0  0  0
    3.9660   -1.1928   -0.1127 C   0  0  0  0  0  0  0  0  0  0  0  0
    4.5494   -0.3094   -1.0257 C   0  0  0  0  0  0  0  0  0  0  0  0
    4.8931    0.9976   -0.6293 C   0  0  0  0  0  0  0  0  0  0  0  0
    5.4612    1.9334   -1.5084 O   0  0  0  0  0  0  0  0  0  0  0  0
    5.7227    1.7096   -2.8920 C   0  0  0  0  0  0  0  0  0  0  0  0
    4.5474    1.4052   -3.5561 F   0  0  0  0  0  0  0  0  0  0  0  0
    6.6321    0.6784   -3.0447 F   0  0  0  0  0  0  0  0  0  0  0  0
    6.2579    2.8597   -3.4385 F   0  0  0  0  0  0  0  0  0  0  0  0
    4.6546    1.3931    0.6918 C   0  0  0  0  0  0  0  0  0  0  0  0
    4.0682    0.5117    1.6040 C   0  0  0  0  0  0  0  0  0  0  0  0
    0.8200   -0.4681    2.5301 C   0  0  0  0  0  0  0  0  0  0  0  0
   -0.5073   -0.2041    2.1861 C   0  0  0  0  0  0  0  0  0  0  0  0
   -3.5490   -1.4639    1.0065 N   0  0  0  0  0  0  0  0  0  0  0  0
   -4.8245   -1.1646    0.6344 C   0  0  0  0  0  0  0  0  0  0  0  0
   -5.8745   -2.0475    0.9364 C   0  0  0  0  0  0  0  0  0  0  0  0
   -7.1840   -1.7407    0.5605 C   0  0  0  0  0  0  0  0  0  0  0  0
   -7.4576   -0.5527   -0.1188 C   0  0  0  0  0  0  0  0  0  0  0  0
   -6.4234    0.3352   -0.4263 C   0  0  0  0  0  0  0  0  0  0  0  0
   -5.0973    0.0395   -0.0525 C   0  0  0  0  0  0  0  0  0  0  0  0
   -4.0338    0.9090   -0.3550 C   0  0  0  0  0  0  0  0  0  0  0  0
   -4.2570    1.9751   -0.9939 O   0  0  0  0  0  0  0  0  0  0  0  0
  1  2  1  0
  2  3  1  0
  3  4  1  0
  4  5  2  0
  4  6  1  0
  6  7  4  0
  7  8  1  0
  8  9  4  0
  9 10  4  0
 10 11  4  0
 11 12  1  0
 12 13  1  0
 13 14  4  0
 14 15  4  0
 15 16  4  0
 16 17  1  0
 17 18  1  0
 18 19  1  0
 18 20  1  0
 18 21  1  0
 16 22  4  0
 22 23  4  0
 11 24  4  0
 24 25  4  0
  7 26  4  0
 26 27  4  0
 27 28  4  0
 28 29  4  0
 29 30  4  0
 30 31  4  0
 31 32  4  0
 32 33  4  0
 33 34  2  0
 23 13  4  0
 25  8  4  0
 32 27  4  0
 33  6  4  0
M  END
>  <SMILES>  (13) 
CCOC(=O)c4c(c2ccc(Cc1ccc(OC(F)(F)F)cc1)cc2)[nH]c3ccccc3c4=O

>  <NumConformers>  (13) 
48

>  <EnergyUnits>  (13) 
RDKit_forcefield

>  <Processing_Time>  (13) 
83.7s

>  <Original_Conformers>  (13) 
500

>  <Total_Conformers>  (13) 
48

>  <Energy>  (13) 
68.350659561117425

>  <Energy_Unit>  (13) 
RDKit_forcefield

>  <Rank>  (13) 
13

>  <Conformer_Index>  (13) 
12

$$$$
GN-171
     RDKit          3D

 34 37  0  0  0  0  0  0  0  0999 V2000
    0.6971    2.4792   -2.1913 C   0  0  0  0  0  0  0  0  0  0  0  0
    0.8121    1.0925   -1.5700 C   0  0  0  0  0  0  0  0  0  0  0  0
   -0.3756    0.7584   -0.8543 O   0  0  0  0  0  0  0  0  0  0  0  0
   -1.5682    0.3447   -1.4645 C   0  0  0  0  0  0  0  0  0  0  0  0
   -1.6668    0.3362   -2.7221 O   0  0  0  0  0  0  0  0  0  0  0  0
   -2.7191   -0.0840   -0.6226 C   0  0  0  0  0  0  0  0  0  0  0  0
   -2.5154   -0.7537    0.6114 C   0  0  0  0  0  0  0  0  0  0  0  0
   -1.1633   -1.1596    1.0498 C   0  0  0  0  0  0  0  0  0  0  0  0
   -0.4123   -2.0600    0.2792 C   0  0  0  0  0  0  0  0  0  0  0  0
    0.9151   -2.3338    0.6137 C   0  0  0  0  0  0  0  0  0  0  0  0
    1.5041   -1.7205    1.7305 C   0  0  0  0  0  0  0  0  0  0  0  0
    2.9787   -1.8729    1.9831 C   0  0  0  0  0  0  0  0  0  0  0  0
    3.7258   -0.8076    1.2257 C   0  0  0  0  0  0  0  0  0  0  0  0
    4.0442   -0.9955   -0.1281 C   0  0  0  0  0  0  0  0  0  0  0  0
    4.6495    0.0287   -0.8621 C   0  0  0  0  0  0  0  0  0  0  0  0
    4.9455    1.2619   -0.2490 C   0  0  0  0  0  0  0  0  0  0  0  0
    5.5485    2.3268   -0.9378 O   0  0  0  0  0  0  0  0  0  0  0  0
    5.9244    2.3111   -2.3139 C   0  0  0  0  0  0  0  0  0  0  0  0
    4.8084    2.1184   -3.1093 F   0  0  0  0  0  0  0  0  0  0  0  0
    6.4970    3.5266   -2.6371 F   0  0  0  0  0  0  0  0  0  0  0  0
    6.8491    1.3081   -2.5455 F   0  0  0  0  0  0  0  0  0  0  0  0
    4.6251    1.4458    1.1015 C   0  0  0  0  0  0  0  0  0  0  0  0
    4.0132    0.4238    1.8330 C   0  0  0  0  0  0  0  0  0  0  0  0
    0.7360   -0.8567    2.5282 C   0  0  0  0  0  0  0  0  0  0  0  0
   -0.5942   -0.5863    2.1952 C   0  0  0  0  0  0  0  0  0  0  0  0
   -3.5799   -1.0675    1.4042 N   0  0  0  0  0  0  0  0  0  0  0  0
   -4.8618   -0.7913    1.0357 C   0  0  0  0  0  0  0  0  0  0  0  0
   -5.9307   -1.1469    1.8753 C   0  0  0  0  0  0  0  0  0  0  0  0
   -7.2461   -0.8715    1.4958 C   0  0  0  0  0  0  0  0  0  0  0  0
   -7.5071   -0.2402    0.2782 C   0  0  0  0  0  0  0  0  0  0  0  0
   -6.4542    0.1198   -0.5671 C   0  0  0  0  0  0  0  0  0  0  0  0
   -5.1217   -0.1523   -0.1983 C   0  0  0  0  0  0  0  0  0  0  0  0
   -4.0400    0.2054   -1.0235 C   0  0  0  0  0  0  0  0  0  0  0  0
   -4.2522    0.8033   -2.1157 O   0  0  0  0  0  0  0  0  0  0  0  0
  1  2  1  0
  2  3  1  0
  3  4  1  0
  4  5  2  0
  4  6  1  0
  6  7  4  0
  7  8  1  0
  8  9  4  0
  9 10  4  0
 10 11  4  0
 11 12  1  0
 12 13  1  0
 13 14  4  0
 14 15  4  0
 15 16  4  0
 16 17  1  0
 17 18  1  0
 18 19  1  0
 18 20  1  0
 18 21  1  0
 16 22  4  0
 22 23  4  0
 11 24  4  0
 24 25  4  0
  7 26  4  0
 26 27  4  0
 27 28  4  0
 28 29  4  0
 29 30  4  0
 30 31  4  0
 31 32  4  0
 32 33  4  0
 33 34  2  0
 23 13  4  0
 25  8  4  0
 32 27  4  0
 33  6  4  0
M  END
>  <SMILES>  (14) 
CCOC(=O)c4c(c2ccc(Cc1ccc(OC(F)(F)F)cc1)cc2)[nH]c3ccccc3c4=O

>  <NumConformers>  (14) 
48

>  <EnergyUnits>  (14) 
RDKit_forcefield

>  <Processing_Time>  (14) 
83.7s

>  <Original_Conformers>  (14) 
500

>  <Total_Conformers>  (14) 
48

>  <Energy>  (14) 
68.370189911313048

>  <Energy_Unit>  (14) 
RDKit_forcefield

>  <Rank>  (14) 
14

>  <Conformer_Index>  (14) 
13

$$$$
GN-171
     RDKit          3D

 34 37  0  0  0  0  0  0  0  0999 V2000
    0.7033    1.7657   -2.7853 C   0  0  0  0  0  0  0  0  0  0  0  0
    0.7536    1.4065   -1.3052 C   0  0  0  0  0  0  0  0  0  0  0  0
   -0.4213    0.6977   -0.9170 O   0  0  0  0  0  0  0  0  0  0  0  0
   -1.6505    1.3133   -0.6482 C   0  0  0  0  0  0  0  0  0  0  0  0
   -1.7958    2.5512   -0.8499 O   0  0  0  0  0  0  0  0  0  0  0  0
   -2.7842    0.5056   -0.1150 C   0  0  0  0  0  0  0  0  0  0  0  0
   -2.5570   -0.6164    0.7239 C   0  0  0  0  0  0  0  0  0  0  0  0
   -1.1989   -0.9685    1.1874 C   0  0  0  0  0  0  0  0  0  0  0  0
   -0.5992   -2.1612    0.7595 C   0  0  0  0  0  0  0  0  0  0  0  0
    0.7348   -2.4294    1.0788 C   0  0  0  0  0  0  0  0  0  0  0  0
    1.4761   -1.5176    1.8483 C   0  0  0  0  0  0  0  0  0  0  0  0
    2.9512   -1.7220    2.0550 C   0  0  0  0  0  0  0  0  0  0  0  0
    3.7146   -0.9315    1.0263 C   0  0  0  0  0  0  0  0  0  0  0  0
    4.1861    0.3553    1.3263 C   0  0  0  0  0  0  0  0  0  0  0  0
    4.8292    1.1185    0.3472 C   0  0  0  0  0  0  0  0  0  0  0  0
    5.0016    0.6084   -0.9541 C   0  0  0  0  0  0  0  0  0  0  0  0
    5.6322    1.3351   -1.9771 O   0  0  0  0  0  0  0  0  0  0  0  0
    6.1770    2.6461   -1.8378 C   0  0  0  0  0  0  0  0  0  0  0  0
    6.7188    3.0377   -3.0469 F   0  0  0  0  0  0  0  0  0  0  0  0
    5.1828    3.5409   -1.4851 F   0  0  0  0  0  0  0  0  0  0  0  0
    7.1748    2.6461   -0.8787 F   0  0  0  0  0  0  0  0  0  0  0  0
    4.5252   -0.6738   -1.2500 C   0  0  0  0  0  0  0  0  0  0  0  0
    3.8839   -1.4386   -0.2712 C   0  0  0  0  0  0  0  0  0  0  0  0
    0.8572   -0.3482    2.3180 C   0  0  0  0  0  0  0  0  0  0  0  0
   -0.4743   -0.0779    1.9943 C   0  0  0  0  0  0  0  0  0  0  0  0
   -3.6051   -1.3792    1.1463 N   0  0  0  0  0  0  0  0  0  0  0  0
   -4.8935   -1.0804    0.8225 C   0  0  0  0  0  0  0  0  0  0  0  0
   -5.9454   -1.8785    1.3011 C   0  0  0  0  0  0  0  0  0  0  0  0
   -7.2682   -1.5668    0.9806 C   0  0  0  0  0  0  0  0  0  0  0  0
   -7.5533   -0.4598    0.1791 C   0  0  0  0  0  0  0  0  0  0  0  0
   -6.5172    0.3423   -0.3054 C   0  0  0  0  0  0  0  0  0  0  0  0
   -5.1779    0.0421    0.0126 C   0  0  0  0  0  0  0  0  0  0  0  0
   -4.1132    0.8299   -0.4611 C   0  0  0  0  0  0  0  0  0  0  0  0
   -4.3489    1.8193   -1.2107 O   0  0  0  0  0  0  0  0  0  0  0  0
  1  2  1  0
  2  3  1  0
  3  4  1  0
  4  5  2  0
  4  6  1  0
  6  7  4  0
  7  8  1  0
  8  9  4  0
  9 10  4  0
 10 11  4  0
 11 12  1  0
 12 13  1  0
 13 14  4  0
 14 15  4  0
 15 16  4  0
 16 17  1  0
 17 18  1  0
 18 19  1  0
 18 20  1  0
 18 21  1  0
 16 22  4  0
 22 23  4  0
 11 24  4  0
 24 25  4  0
  7 26  4  0
 26 27  4  0
 27 28  4  0
 28 29  4  0
 29 30  4  0
 30 31  4  0
 31 32  4  0
 32 33  4  0
 33 34  2  0
 23 13  4  0
 25  8  4  0
 32 27  4  0
 33  6  4  0
M  END
>  <SMILES>  (15) 
CCOC(=O)c4c(c2ccc(Cc1ccc(OC(F)(F)F)cc1)cc2)[nH]c3ccccc3c4=O

>  <NumConformers>  (15) 
48

>  <EnergyUnits>  (15) 
RDKit_forcefield

>  <Processing_Time>  (15) 
83.7s

>  <Original_Conformers>  (15) 
500

>  <Total_Conformers>  (15) 
48

>  <Energy>  (15) 
68.558601550356073

>  <Energy_Unit>  (15) 
RDKit_forcefield

>  <Rank>  (15) 
15

>  <Conformer_Index>  (15) 
14

$$$$
GN-171
     RDKit          3D

 34 37  0  0  0  0  0  0  0  0999 V2000
    0.5196    2.0445   -2.7969 C   0  0  0  0  0  0  0  0  0  0  0  0
    0.6481    0.7264   -2.0416 C   0  0  0  0  0  0  0  0  0  0  0  0
   -0.4830    0.5165   -1.1997 O   0  0  0  0  0  0  0  0  0  0  0  0
   -1.7272    0.0655   -1.6629 C   0  0  0  0  0  0  0  0  0  0  0  0
   -1.9194   -0.1116   -2.8982 O   0  0  0  0  0  0  0  0  0  0  0  0
   -2.8199   -0.2132   -0.6924 C   0  0  0  0  0  0  0  0  0  0  0  0
   -2.5408   -0.7319    0.5969 C   0  0  0  0  0  0  0  0  0  0  0  0
   -1.1702   -1.1264    0.9908 C   0  0  0  0  0  0  0  0  0  0  0  0
   -0.5324   -0.4766    2.0575 C   0  0  0  0  0  0  0  0  0  0  0  0
    0.8006   -0.7671    2.3612 C   0  0  0  0  0  0  0  0  0  0  0  0
    1.5051   -1.7247    1.6129 C   0  0  0  0  0  0  0  0  0  0  0  0
    2.9768   -1.9316    1.8422 C   0  0  0  0  0  0  0  0  0  0  0  0
    3.7586   -0.9524    1.0083 C   0  0  0  0  0  0  0  0  0  0  0  0
    4.0787   -1.2553   -0.3243 C   0  0  0  0  0  0  0  0  0  0  0  0
    4.7448   -0.3189   -1.1197 C   0  0  0  0  0  0  0  0  0  0  0  0
    5.0933    0.9354   -0.6041 C   0  0  0  0  0  0  0  0  0  0  0  0
    5.7617    1.8366   -1.4489 O   0  0  0  0  0  0  0  0  0  0  0  0
    6.1616    3.1593   -1.0921 C   0  0  0  0  0  0  0  0  0  0  0  0
    7.0525    3.1207   -0.0343 F   0  0  0  0  0  0  0  0  0  0  0  0
    6.7839    3.7476   -2.1756 F   0  0  0  0  0  0  0  0  0  0  0  0
    5.0545    3.9149   -0.7508 F   0  0  0  0  0  0  0  0  0  0  0  0
    4.7611    1.2447    0.7296 C   0  0  0  0  0  0  0  0  0  0  0  0
    4.0954    0.3081    1.5259 C   0  0  0  0  0  0  0  0  0  0  0  0
    0.8519   -2.4032    0.5716 C   0  0  0  0  0  0  0  0  0  0  0  0
   -0.4803   -2.1131    0.2690 C   0  0  0  0  0  0  0  0  0  0  0  0
   -3.5503   -0.9028    1.4982 N   0  0  0  0  0  0  0  0  0  0  0  0
   -4.8476   -0.6214    1.1943 C   0  0  0  0  0  0  0  0  0  0  0  0
   -5.8578   -0.8245    2.1498 C   0  0  0  0  0  0  0  0  0  0  0  0
   -7.1891   -0.5403    1.8394 C   0  0  0  0  0  0  0  0  0  0  0  0
   -7.5244   -0.0527    0.5753 C   0  0  0  0  0  0  0  0  0  0  0  0
   -6.5305    0.1518   -0.3849 C   0  0  0  0  0  0  0  0  0  0  0  0
   -5.1829   -0.1293   -0.0862 C   0  0  0  0  0  0  0  0  0  0  0  0
   -4.1585    0.0789   -1.0273 C   0  0  0  0  0  0  0  0  0  0  0  0
   -4.4368    0.5493   -2.1659 O   0  0  0  0  0  0  0  0  0  0  0  0
  1  2  1  0
  2  3  1  0
  3  4  1  0
  4  5  2  0
  4  6  1  0
  6  7  4  0
  7  8  1  0
  8  9  4  0
  9 10  4  0
 10 11  4  0
 11 12  1  0
 12 13  1  0
 13 14  4  0
 14 15  4  0
 15 16  4  0
 16 17  1  0
 17 18  1  0
 18 19  1  0
 18 20  1  0
 18 21  1  0
 16 22  4  0
 22 23  4  0
 11 24  4  0
 24 25  4  0
  7 26  4  0
 26 27  4  0
 27 28  4  0
 28 29  4  0
 29 30  4  0
 30 31  4  0
 31 32  4  0
 32 33  4  0
 33 34  2  0
 23 13  4  0
 25  8  4  0
 32 27  4  0
 33  6  4  0
M  END
>  <SMILES>  (16) 
CCOC(=O)c4c(c2ccc(Cc1ccc(OC(F)(F)F)cc1)cc2)[nH]c3ccccc3c4=O

>  <NumConformers>  (16) 
48

>  <EnergyUnits>  (16) 
RDKit_forcefield

>  <Processing_Time>  (16) 
83.7s

>  <Original_Conformers>  (16) 
500

>  <Total_Conformers>  (16) 
48

>  <Energy>  (16) 
68.561699791147234

>  <Energy_Unit>  (16) 
RDKit_forcefield

>  <Rank>  (16) 
16

>  <Conformer_Index>  (16) 
15

$$$$
GN-171
     RDKit          3D

 34 37  0  0  0  0  0  0  0  0999 V2000
   -0.6944    0.0889   -4.6645 C   0  0  0  0  0  0  0  0  0  0  0  0
   -1.7892    1.0700   -4.2635 C   0  0  0  0  0  0  0  0  0  0  0  0
   -2.1873    0.8566   -2.9109 O   0  0  0  0  0  0  0  0  0  0  0  0
   -3.0246   -0.1917   -2.5076 C   0  0  0  0  0  0  0  0  0  0  0  0
   -3.5056   -0.9845   -3.3635 O   0  0  0  0  0  0  0  0  0  0  0  0
   -3.3715   -0.3489   -1.0716 C   0  0  0  0  0  0  0  0  0  0  0  0
   -2.4273   -0.0693   -0.0517 C   0  0  0  0  0  0  0  0  0  0  0  0
   -1.0123    0.2391   -0.3622 C   0  0  0  0  0  0  0  0  0  0  0  0
   -0.4361    1.4328    0.0962 C   0  0  0  0  0  0  0  0  0  0  0  0
    0.9034    1.7206   -0.1804 C   0  0  0  0  0  0  0  0  0  0  0  0
    1.6856    0.8157   -0.9152 C   0  0  0  0  0  0  0  0  0  0  0  0
    3.1371    1.1082   -1.1805 C   0  0  0  0  0  0  0  0  0  0  0  0
    3.9870    0.5779   -0.0580 C   0  0  0  0  0  0  0  0  0  0  0  0
    4.2616    1.3780    1.0615 C   0  0  0  0  0  0  0  0  0  0  0  0
    5.0192    0.8734    2.1227 C   0  0  0  0  0  0  0  0  0  0  0  0
    5.5065   -0.4476    2.0828 C   0  0  0  0  0  0  0  0  0  0  0  0
    6.2710   -1.0068    3.1196 O   0  0  0  0  0  0  0  0  0  0  0  0
    6.6497   -0.3344    4.3187 C   0  0  0  0  0  0  0  0  0  0  0  0
    7.3959   -1.1960    5.0991 F   0  0  0  0  0  0  0  0  0  0  0  0
    5.5245    0.0473    5.0271 F   0  0  0  0  0  0  0  0  0  0  0  0
    7.4189    0.7761    4.0201 F   0  0  0  0  0  0  0  0  0  0  0  0
    5.2200   -1.2455    0.9688 C   0  0  0  0  0  0  0  0  0  0  0  0
    4.4630   -0.7414   -0.0923 C   0  0  0  0  0  0  0  0  0  0  0  0
    1.1170   -0.3929   -1.3463 C   0  0  0  0  0  0  0  0  0  0  0  0
   -0.2236   -0.6781   -1.0744 C   0  0  0  0  0  0  0  0  0  0  0  0
   -2.8029   -0.1303    1.2588 N   0  0  0  0  0  0  0  0  0  0  0  0
   -4.0618   -0.4866    1.6372 C   0  0  0  0  0  0  0  0  0  0  0  0
   -4.3997   -0.5492    2.9994 C   0  0  0  0  0  0  0  0  0  0  0  0
   -5.6879   -0.9212    3.3897 C   0  0  0  0  0  0  0  0  0  0  0  0
   -6.6488   -1.2341    2.4270 C   0  0  0  0  0  0  0  0  0  0  0  0
   -6.3270   -1.1764    1.0686 C   0  0  0  0  0  0  0  0  0  0  0  0
   -5.0310   -0.8034    0.6599 C   0  0  0  0  0  0  0  0  0  0  0  0
   -4.6788   -0.7271   -0.6991 C   0  0  0  0  0  0  0  0  0  0  0  0
   -5.5417   -0.9777   -1.5865 O   0  0  0  0  0  0  0  0  0  0  0  0
  1  2  1  0
  2  3  1  0
  3  4  1  0
  4  5  2  0
  4  6  1  0
  6  7  4  0
  7  8  1  0
  8  9  4  0
  9 10  4  0
 10 11  4  0
 11 12  1  0
 12 13  1  0
 13 14  4  0
 14 15  4  0
 15 16  4  0
 16 17  1  0
 17 18  1  0
 18 19  1  0
 18 20  1  0
 18 21  1  0
 16 22  4  0
 22 23  4  0
 11 24  4  0
 24 25  4  0
  7 26  4  0
 26 27  4  0
 27 28  4  0
 28 29  4  0
 29 30  4  0
 30 31  4  0
 31 32  4  0
 32 33  4  0
 33 34  2  0
 23 13  4  0
 25  8  4  0
 32 27  4  0
 33  6  4  0
M  END
>  <SMILES>  (17) 
CCOC(=O)c4c(c2ccc(Cc1ccc(OC(F)(F)F)cc1)cc2)[nH]c3ccccc3c4=O

>  <NumConformers>  (17) 
48

>  <EnergyUnits>  (17) 
RDKit_forcefield

>  <Processing_Time>  (17) 
83.7s

>  <Original_Conformers>  (17) 
500

>  <Total_Conformers>  (17) 
48

>  <Energy>  (17) 
68.706251714134169

>  <Energy_Unit>  (17) 
RDKit_forcefield

>  <Rank>  (17) 
17

>  <Conformer_Index>  (17) 
16

$$$$
GN-171
     RDKit          3D

 34 37  0  0  0  0  0  0  0  0999 V2000
   -0.8571    1.6647   -4.3366 C   0  0  0  0  0  0  0  0  0  0  0  0
   -1.7218    0.4116   -4.4021 C   0  0  0  0  0  0  0  0  0  0  0  0
   -2.0985   -0.0103   -3.0930 O   0  0  0  0  0  0  0  0  0  0  0  0
   -3.1078    0.6064   -2.3423 C   0  0  0  0  0  0  0  0  0  0  0  0
   -3.7697    1.5619   -2.8338 O   0  0  0  0  0  0  0  0  0  0  0  0
   -3.4198    0.1113   -0.9768 C   0  0  0  0  0  0  0  0  0  0  0  0
   -2.3986   -0.3605   -0.1138 C   0  0  0  0  0  0  0  0  0  0  0  0
   -0.9645   -0.2402   -0.4637 C   0  0  0  0  0  0  0  0  0  0  0  0
   -0.3978    1.0181   -0.7215 C   0  0  0  0  0  0  0  0  0  0  0  0
    0.9607    1.1295   -1.0292 C   0  0  0  0  0  0  0  0  0  0  0  0
    1.7695   -0.0160   -1.0894 C   0  0  0  0  0  0  0  0  0  0  0  0
    3.2384    0.1076   -1.3896 C   0  0  0  0  0  0  0  0  0  0  0  0
    4.0149    0.2951   -0.1146 C   0  0  0  0  0  0  0  0  0  0  0  0
    4.4879   -0.8179    0.5970 C   0  0  0  0  0  0  0  0  0  0  0  0
    5.1770   -0.6465    1.8014 C   0  0  0  0  0  0  0  0  0  0  0  0
    5.3950    0.6458    2.3176 C   0  0  0  0  0  0  0  0  0  0  0  0
    6.0797    0.8773    3.5216 O   0  0  0  0  0  0  0  0  0  0  0  0
    6.6379   -0.1327    4.3593 C   0  0  0  0  0  0  0  0  0  0  0  0
    7.5952   -0.8518    3.6662 F   0  0  0  0  0  0  0  0  0  0  0  0
    5.6434   -0.9826    4.8092 F   0  0  0  0  0  0  0  0  0  0  0  0
    7.2358    0.4692    5.4494 F   0  0  0  0  0  0  0  0  0  0  0  0
    4.9106    1.7523    1.6098 C   0  0  0  0  0  0  0  0  0  0  0  0
    4.2220    1.5814    0.4057 C   0  0  0  0  0  0  0  0  0  0  0  0
    1.2076   -1.2708   -0.8061 C   0  0  0  0  0  0  0  0  0  0  0  0
   -0.1500   -1.3815   -0.4927 C   0  0  0  0  0  0  0  0  0  0  0  0
   -2.7253   -0.8974    1.0975 N   0  0  0  0  0  0  0  0  0  0  0  0
   -4.0129   -0.9717    1.5349 C   0  0  0  0  0  0  0  0  0  0  0  0
   -4.3009   -1.5205    2.7957 C   0  0  0  0  0  0  0  0  0  0  0  0
   -5.6199   -1.5912    3.2493 C   0  0  0  0  0  0  0  0  0  0  0  0
   -6.6615   -1.1154    2.4513 C   0  0  0  0  0  0  0  0  0  0  0  0
   -6.3901   -0.5667    1.1954 C   0  0  0  0  0  0  0  0  0  0  0  0
   -5.0641   -0.4883    0.7249 C   0  0  0  0  0  0  0  0  0  0  0  0
   -4.7594    0.0497   -0.5378 C   0  0  0  0  0  0  0  0  0  0  0  0
   -5.6899    0.4587   -1.2873 O   0  0  0  0  0  0  0  0  0  0  0  0
  1  2  1  0
  2  3  1  0
  3  4  1  0
  4  5  2  0
  4  6  1  0
  6  7  4  0
  7  8  1  0
  8  9  4  0
  9 10  4  0
 10 11  4  0
 11 12  1  0
 12 13  1  0
 13 14  4  0
 14 15  4  0
 15 16  4  0
 16 17  1  0
 17 18  1  0
 18 19  1  0
 18 20  1  0
 18 21  1  0
 16 22  4  0
 22 23  4  0
 11 24  4  0
 24 25  4  0
  7 26  4  0
 26 27  4  0
 27 28  4  0
 28 29  4  0
 29 30  4  0
 30 31  4  0
 31 32  4  0
 32 33  4  0
 33 34  2  0
 23 13  4  0
 25  8  4  0
 32 27  4  0
 33  6  4  0
M  END
>  <SMILES>  (18) 
CCOC(=O)c4c(c2ccc(Cc1ccc(OC(F)(F)F)cc1)cc2)[nH]c3ccccc3c4=O

>  <NumConformers>  (18) 
48

>  <EnergyUnits>  (18) 
RDKit_forcefield

>  <Processing_Time>  (18) 
83.7s

>  <Original_Conformers>  (18) 
500

>  <Total_Conformers>  (18) 
48

>  <Energy>  (18) 
68.707022384438758

>  <Energy_Unit>  (18) 
RDKit_forcefield

>  <Rank>  (18) 
18

>  <Conformer_Index>  (18) 
17

$$$$
GN-171
     RDKit          3D

 34 37  0  0  0  0  0  0  0  0999 V2000
   -0.5973    2.0497   -3.9037 C   0  0  0  0  0  0  0  0  0  0  0  0
   -1.6224    0.9621   -4.2046 C   0  0  0  0  0  0  0  0  0  0  0  0
   -2.0731    0.3460   -2.9993 O   0  0  0  0  0  0  0  0  0  0  0  0
   -3.0094    0.9331   -2.1382 C   0  0  0  0  0  0  0  0  0  0  0  0
   -3.5476    2.0325   -2.4448 O   0  0  0  0  0  0  0  0  0  0  0  0
   -3.3959    0.2413   -0.8799 C   0  0  0  0  0  0  0  0  0  0  0  0
   -2.4525   -0.5060   -0.1289 C   0  0  0  0  0  0  0  0  0  0  0  0
   -1.0070   -0.4960   -0.4570 C   0  0  0  0  0  0  0  0  0  0  0  0
   -0.3023    0.7165   -0.5278 C   0  0  0  0  0  0  0  0  0  0  0  0
    1.0617    0.7224   -0.8278 C   0  0  0  0  0  0  0  0  0  0  0  0
    1.7427   -0.4829   -1.0570 C   0  0  0  0  0  0  0  0  0  0  0  0
    3.2140   -0.4708   -1.3729 C   0  0  0  0  0  0  0  0  0  0  0  0
    4.0179   -0.2717   -0.1167 C   0  0  0  0  0  0  0  0  0  0  0  0
    4.4532    1.0118    0.2523 C   0  0  0  0  0  0  0  0  0  0  0  0
    5.1695    1.2016    1.4379 C   0  0  0  0  0  0  0  0  0  0  0  0
    5.4545    0.1055    2.2790 C   0  0  0  0  0  0  0  0  0  0  0  0
    6.1651    0.2378    3.4837 O   0  0  0  0  0  0  0  0  0  0  0  0
    6.6680    1.4654    4.0106 C   0  0  0  0  0  0  0  0  0  0  0  0
    7.5760    2.0259    3.1302 F   0  0  0  0  0  0  0  0  0  0  0  0
    7.3063    1.2112    5.2096 F   0  0  0  0  0  0  0  0  0  0  0  0
    5.6274    2.3467    4.2422 F   0  0  0  0  0  0  0  0  0  0  0  0
    5.0109   -1.1715    1.9105 C   0  0  0  0  0  0  0  0  0  0  0  0
    4.2942   -1.3612    0.7254 C   0  0  0  0  0  0  0  0  0  0  0  0
    1.0467   -1.6975   -0.9491 C   0  0  0  0  0  0  0  0  0  0  0  0
   -0.3190   -1.7038   -0.6504 C   0  0  0  0  0  0  0  0  0  0  0  0
   -2.8616   -1.2120    0.9670 N   0  0  0  0  0  0  0  0  0  0  0  0
   -4.1526   -1.1943    1.4038 C   0  0  0  0  0  0  0  0  0  0  0  0
   -4.5226   -1.9174    2.5519 C   0  0  0  0  0  0  0  0  0  0  0  0
   -5.8413   -1.8844    3.0125 C   0  0  0  0  0  0  0  0  0  0  0  0
   -6.8013   -1.1341    2.3307 C   0  0  0  0  0  0  0  0  0  0  0  0
   -6.4489   -0.4139    1.1848 C   0  0  0  0  0  0  0  0  0  0  0  0
   -5.1218   -0.4354    0.7114 C   0  0  0  0  0  0  0  0  0  0  0  0
   -4.7367    0.2767   -0.4384 C   0  0  0  0  0  0  0  0  0  0  0  0
   -5.5982    0.9340   -1.0861 O   0  0  0  0  0  0  0  0  0  0  0  0
  1  2  1  0
  2  3  1  0
  3  4  1  0
  4  5  2  0
  4  6  1  0
  6  7  4  0
  7  8  1  0
  8  9  4  0
  9 10  4  0
 10 11  4  0
 11 12  1  0
 12 13  1  0
 13 14  4  0
 14 15  4  0
 15 16  4  0
 16 17  1  0
 17 18  1  0
 18 19  1  0
 18 20  1  0
 18 21  1  0
 16 22  4  0
 22 23  4  0
 11 24  4  0
 24 25  4  0
  7 26  4  0
 26 27  4  0
 27 28  4  0
 28 29  4  0
 29 30  4  0
 30 31  4  0
 31 32  4  0
 32 33  4  0
 33 34  2  0
 23 13  4  0
 25  8  4  0
 32 27  4  0
 33  6  4  0
M  END
>  <SMILES>  (19) 
CCOC(=O)c4c(c2ccc(Cc1ccc(OC(F)(F)F)cc1)cc2)[nH]c3ccccc3c4=O

>  <NumConformers>  (19) 
48

>  <EnergyUnits>  (19) 
RDKit_forcefield

>  <Processing_Time>  (19) 
83.7s

>  <Original_Conformers>  (19) 
500

>  <Total_Conformers>  (19) 
48

>  <Energy>  (19) 
68.936431236192931

>  <Energy_Unit>  (19) 
RDKit_forcefield

>  <Rank>  (19) 
19

>  <Conformer_Index>  (19) 
18

$$$$
GN-171
     RDKit          3D

 34 37  0  0  0  0  0  0  0  0999 V2000
   -1.7238    4.2707   -2.8124 C   0  0  0  0  0  0  0  0  0  0  0  0
   -1.1328    3.4045   -1.7120 C   0  0  0  0  0  0  0  0  0  0  0  0
   -2.0242    2.3342   -1.4178 O   0  0  0  0  0  0  0  0  0  0  0  0
   -1.7493    1.3688   -0.4440 C   0  0  0  0  0  0  0  0  0  0  0  0
   -0.6849    1.4372    0.2306 O   0  0  0  0  0  0  0  0  0  0  0  0
   -2.7235    0.2754   -0.1928 C   0  0  0  0  0  0  0  0  0  0  0  0
   -2.3004   -1.0345    0.1522 C   0  0  0  0  0  0  0  0  0  0  0  0
   -0.8697   -1.4216    0.1471 C   0  0  0  0  0  0  0  0  0  0  0  0
   -0.0940   -1.2753   -1.0143 C   0  0  0  0  0  0  0  0  0  0  0  0
    1.2525   -1.6485   -1.0146 C   0  0  0  0  0  0  0  0  0  0  0  0
    1.8373   -2.1918    0.1399 C   0  0  0  0  0  0  0  0  0  0  0  0
    3.2999   -2.5433    0.1558 C   0  0  0  0  0  0  0  0  0  0  0  0
    4.1131   -1.3521    0.5841 C   0  0  0  0  0  0  0  0  0  0  0  0
    4.5523   -0.4165   -0.3649 C   0  0  0  0  0  0  0  0  0  0  0  0
    5.2700    0.7141    0.0363 C   0  0  0  0  0  0  0  0  0  0  0  0
    5.5521    0.9300    1.3993 C   0  0  0  0  0  0  0  0  0  0  0  0
    6.2664    2.0481    1.8592 O   0  0  0  0  0  0  0  0  0  0  0  0
    6.7833    3.0911    1.0357 C   0  0  0  0  0  0  0  0  0  0  0  0
    5.7530    3.7190    0.3589 F   0  0  0  0  0  0  0  0  0  0  0  0
    7.6969    2.5773    0.1328 F   0  0  0  0  0  0  0  0  0  0  0  0
    7.4213    4.0191    1.8355 F   0  0  0  0  0  0  0  0  0  0  0  0
    5.1034   -0.0014    2.3432 C   0  0  0  0  0  0  0  0  0  0  0  0
    4.3851   -1.1314    1.9426 C   0  0  0  0  0  0  0  0  0  0  0  0
    1.0593   -2.3457    1.2983 C   0  0  0  0  0  0  0  0  0  0  0  0
   -0.2875   -1.9723    1.2985 C   0  0  0  0  0  0  0  0  0  0  0  0
   -3.2264   -1.9890    0.4586 N   0  0  0  0  0  0  0  0  0  0  0  0
   -4.5651   -1.7425    0.4153 C   0  0  0  0  0  0  0  0  0  0  0  0
   -5.4821   -2.7604    0.7263 C   0  0  0  0  0  0  0  0  0  0  0  0
   -6.8554   -2.5117    0.6764 C   0  0  0  0  0  0  0  0  0  0  0  0
   -7.3258   -1.2481    0.3158 C   0  0  0  0  0  0  0  0  0  0  0  0
   -6.4256   -0.2262    0.0033 C   0  0  0  0  0  0  0  0  0  0  0  0
   -5.0372   -0.4629    0.0489 C   0  0  0  0  0  0  0  0  0  0  0  0
   -4.1062    0.5469   -0.2510 C   0  0  0  0  0  0  0  0  0  0  0  0
   -4.5110    1.7047   -0.5521 O   0  0  0  0  0  0  0  0  0  0  0  0
  1  2  1  0
  2  3  1  0
  3  4  1  0
  4  5  2  0
  4  6  1  0
  6  7  4  0
  7  8  1  0
  8  9  4  0
  9 10  4  0
 10 11  4  0
 11 12  1  0
 12 13  1  0
 13 14  4  0
 14 15  4  0
 15 16  4  0
 16 17  1  0
 17 18  1  0
 18 19  1  0
 18 20  1  0
 18 21  1  0
 16 22  4  0
 22 23  4  0
 11 24  4  0
 24 25  4  0
  7 26  4  0
 26 27  4  0
 27 28  4  0
 28 29  4  0
 29 30  4  0
 30 31  4  0
 31 32  4  0
 32 33  4  0
 33 34  2  0
 23 13  4  0
 25  8  4  0
 32 27  4  0
 33  6  4  0
M  END
>  <SMILES>  (20) 
CCOC(=O)c4c(c2ccc(Cc1ccc(OC(F)(F)F)cc1)cc2)[nH]c3ccccc3c4=O

>  <NumConformers>  (20) 
48

>  <EnergyUnits>  (20) 
RDKit_forcefield

>  <Processing_Time>  (20) 
83.7s

>  <Original_Conformers>  (20) 
500

>  <Total_Conformers>  (20) 
48

>  <Energy>  (20) 
68.949680935808118

>  <Energy_Unit>  (20) 
RDKit_forcefield

>  <Rank>  (20) 
20

>  <Conformer_Index>  (20) 
19

$$$$
GN-171
     RDKit          3D

 34 37  0  0  0  0  0  0  0  0999 V2000
   -2.3455    5.0247    0.4472 C   0  0  0  0  0  0  0  0  0  0  0  0
   -1.5007    3.8389    0.0109 C   0  0  0  0  0  0  0  0  0  0  0  0
   -2.3100    2.6687   -0.0364 O   0  0  0  0  0  0  0  0  0  0  0  0
   -1.8078    1.4183   -0.4112 C   0  0  0  0  0  0  0  0  0  0  0  0
   -0.5957    1.2979   -0.7418 O   0  0  0  0  0  0  0  0  0  0  0  0
   -2.7105    0.2382   -0.4402 C   0  0  0  0  0  0  0  0  0  0  0  0
   -2.2520   -1.0589   -0.0926 C   0  0  0  0  0  0  0  0  0  0  0  0
   -0.8925   -1.2889    0.4505 C   0  0  0  0  0  0  0  0  0  0  0  0
   -0.4663   -0.6264    1.6129 C   0  0  0  0  0  0  0  0  0  0  0  0
    0.8138   -0.8540    2.1251 C   0  0  0  0  0  0  0  0  0  0  0  0
    1.6785   -1.7612    1.4934 C   0  0  0  0  0  0  0  0  0  0  0  0
    3.0745   -1.9670    2.0150 C   0  0  0  0  0  0  0  0  0  0  0  0
    4.0125   -0.9705    1.3901 C   0  0  0  0  0  0  0  0  0  0  0  0
    4.6563   -1.2666    0.1790 C   0  0  0  0  0  0  0  0  0  0  0  0
    5.4959   -0.3255   -0.4242 C   0  0  0  0  0  0  0  0  0  0  0  0
    5.6965    0.9340    0.1736 C   0  0  0  0  0  0  0  0  0  0  0  0
    6.5268    1.9176   -0.3880 O   0  0  0  0  0  0  0  0  0  0  0  0
    7.2572    1.7823   -1.6052 C   0  0  0  0  0  0  0  0  0  0  0  0
    7.9564    2.9502   -1.8402 F   0  0  0  0  0  0  0  0  0  0  0  0
    6.3900    1.5618   -2.6602 F   0  0  0  0  0  0  0  0  0  0  0  0
    8.1570    0.7363   -1.5074 F   0  0  0  0  0  0  0  0  0  0  0  0
    5.0432    1.2288    1.3761 C   0  0  0  0  0  0  0  0  0  0  0  0
    4.2040    0.2882    1.9795 C   0  0  0  0  0  0  0  0  0  0  0  0
    1.2493   -2.4289    0.3355 C   0  0  0  0  0  0  0  0  0  0  0  0
   -0.0315   -2.2019   -0.1762 C   0  0  0  0  0  0  0  0  0  0  0  0
   -3.0880   -2.1307   -0.2148 N   0  0  0  0  0  0  0  0  0  0  0  0
   -4.3778   -2.0017   -0.6326 C   0  0  0  0  0  0  0  0  0  0  0  0
   -5.2062   -3.1323   -0.7297 C   0  0  0  0  0  0  0  0  0  0  0  0
   -6.5312   -3.0014   -1.1509 C   0  0  0  0  0  0  0  0  0  0  0  0
   -7.0414   -1.7440   -1.4777 C   0  0  0  0  0  0  0  0  0  0  0  0
   -6.2292   -0.6108   -1.3860 C   0  0  0  0  0  0  0  0  0  0  0  0
   -4.8906   -0.7277   -0.9617 C   0  0  0  0  0  0  0  0  0  0  0  0
   -4.0459    0.3922   -0.8672 C   0  0  0  0  0  0  0  0  0  0  0  0
   -4.4800    1.5346   -1.1858 O   0  0  0  0  0  0  0  0  0  0  0  0
  1  2  1  0
  2  3  1  0
  3  4  1  0
  4  5  2  0
  4  6  1  0
  6  7  4  0
  7  8  1  0
  8  9  4  0
  9 10  4  0
 10 11  4  0
 11 12  1  0
 12 13  1  0
 13 14  4  0
 14 15  4  0
 15 16  4  0
 16 17  1  0
 17 18  1  0
 18 19  1  0
 18 20  1  0
 18 21  1  0
 16 22  4  0
 22 23  4  0
 11 24  4  0
 24 25  4  0
  7 26  4  0
 26 27  4  0
 27 28  4  0
 28 29  4  0
 29 30  4  0
 30 31  4  0
 31 32  4  0
 32 33  4  0
 33 34  2  0
 23 13  4  0
 25  8  4  0
 32 27  4  0
 33  6  4  0
M  END
>  <SMILES>  (21) 
CCOC(=O)c4c(c2ccc(Cc1ccc(OC(F)(F)F)cc1)cc2)[nH]c3ccccc3c4=O

>  <NumConformers>  (21) 
48

>  <EnergyUnits>  (21) 
RDKit_forcefield

>  <Processing_Time>  (21) 
83.7s

>  <Original_Conformers>  (21) 
500

>  <Total_Conformers>  (21) 
48

>  <Energy>  (21) 
68.960504514240881

>  <Energy_Unit>  (21) 
RDKit_forcefield

>  <Rank>  (21) 
21

>  <Conformer_Index>  (21) 
20

$$$$
GN-171
     RDKit          3D

 34 37  0  0  0  0  0  0  0  0999 V2000
   -2.0967    4.3377   -2.8660 C   0  0  0  0  0  0  0  0  0  0  0  0
   -1.3930    3.4874   -1.8209 C   0  0  0  0  0  0  0  0  0  0  0  0
   -2.2273    2.3926   -1.4573 O   0  0  0  0  0  0  0  0  0  0  0  0
   -1.8498    1.4383   -0.5065 C   0  0  0  0  0  0  0  0  0  0  0  0
   -0.7410    1.5412    0.0877 O   0  0  0  0  0  0  0  0  0  0  0  0
   -2.7678    0.3159   -0.1841 C   0  0  0  0  0  0  0  0  0  0  0  0
   -2.2800   -0.9818    0.1196 C   0  0  0  0  0  0  0  0  0  0  0  0
   -0.8435   -1.3281   -0.0022 C   0  0  0  0  0  0  0  0  0  0  0  0
   -0.1608   -1.8854    1.0897 C   0  0  0  0  0  0  0  0  0  0  0  0
    1.1874   -2.2353    0.9749 C   0  0  0  0  0  0  0  0  0  0  0  0
    1.8668   -2.0505   -0.2395 C   0  0  0  0  0  0  0  0  0  0  0  0
    3.3279   -2.3911   -0.3504 C   0  0  0  0  0  0  0  0  0  0  0  0
    4.1684   -1.2142    0.0642 C   0  0  0  0  0  0  0  0  0  0  0  0
    4.5234   -0.2326   -0.8731 C   0  0  0  0  0  0  0  0  0  0  0  0
    5.2762    0.8775   -0.4802 C   0  0  0  0  0  0  0  0  0  0  0  0
    5.6782    1.0315    0.8521 C   0  0  0  0  0  0  0  0  0  0  0  0
    6.4368    2.1644    1.1891 O   0  0  0  0  0  0  0  0  0  0  0  0
    6.9226    2.4724    2.4939 C   0  0  0  0  0  0  0  0  0  0  0  0
    7.6272    3.6594    2.4406 F   0  0  0  0  0  0  0  0  0  0  0  0
    7.7690    1.4703    2.9357 F   0  0  0  0  0  0  0  0  0  0  0  0
    5.8656    2.6202    3.3744 F   0  0  0  0  0  0  0  0  0  0  0  0
    5.3096    0.0535    1.7962 C   0  0  0  0  0  0  0  0  0  0  0  0
    4.5563   -1.0570    1.4037 C   0  0  0  0  0  0  0  0  0  0  0  0
    1.1836   -1.4949   -1.3326 C   0  0  0  0  0  0  0  0  0  0  0  0
   -0.1647   -1.1461   -1.2183 C   0  0  0  0  0  0  0  0  0  0  0  0
   -3.1509   -1.9644    0.4925 N   0  0  0  0  0  0  0  0  0  0  0  0
   -4.4955   -1.7577    0.5567 C   0  0  0  0  0  0  0  0  0  0  0  0
   -5.3546   -2.8033    0.9347 C   0  0  0  0  0  0  0  0  0  0  0  0
   -6.7342   -2.5951    0.9961 C   0  0  0  0  0  0  0  0  0  0  0  0
   -7.2685   -1.3452    0.6807 C   0  0  0  0  0  0  0  0  0  0  0  0
   -6.4265   -0.2961    0.3024 C   0  0  0  0  0  0  0  0  0  0  0  0
   -5.0325   -0.4917    0.2358 C   0  0  0  0  0  0  0  0  0  0  0  0
   -4.1583    0.5463   -0.1317 C   0  0  0  0  0  0  0  0  0  0  0  0
   -4.6196    1.6925   -0.3940 O   0  0  0  0  0  0  0  0  0  0  0  0
  1  2  1  0
  2  3  1  0
  3  4  1  0
  4  5  2  0
  4  6  1  0
  6  7  4  0
  7  8  1  0
  8  9  4  0
  9 10  4  0
 10 11  4  0
 11 12  1  0
 12 13  1  0
 13 14  4  0
 14 15  4  0
 15 16  4  0
 16 17  1  0
 17 18  1  0
 18 19  1  0
 18 20  1  0
 18 21  1  0
 16 22  4  0
 22 23  4  0
 11 24  4  0
 24 25  4  0
  7 26  4  0
 26 27  4  0
 27 28  4  0
 28 29  4  0
 29 30  4  0
 30 31  4  0
 31 32  4  0
 32 33  4  0
 33 34  2  0
 23 13  4  0
 25  8  4  0
 32 27  4  0
 33  6  4  0
M  END
>  <SMILES>  (22) 
CCOC(=O)c4c(c2ccc(Cc1ccc(OC(F)(F)F)cc1)cc2)[nH]c3ccccc3c4=O

>  <NumConformers>  (22) 
48

>  <EnergyUnits>  (22) 
RDKit_forcefield

>  <Processing_Time>  (22) 
83.7s

>  <Original_Conformers>  (22) 
500

>  <Total_Conformers>  (22) 
48

>  <Energy>  (22) 
68.975493884246802

>  <Energy_Unit>  (22) 
RDKit_forcefield

>  <Rank>  (22) 
22

>  <Conformer_Index>  (22) 
21

$$$$
GN-171
     RDKit          3D

 34 37  0  0  0  0  0  0  0  0999 V2000
   -0.9436    3.6536   -2.4696 C   0  0  0  0  0  0  0  0  0  0  0  0
   -2.1974    3.7629   -1.6103 C   0  0  0  0  0  0  0  0  0  0  0  0
   -2.4899    2.5173   -0.9841 O   0  0  0  0  0  0  0  0  0  0  0  0
   -3.0945    1.4430   -1.6486 C   0  0  0  0  0  0  0  0  0  0  0  0
   -3.4222    1.5495   -2.8633 O   0  0  0  0  0  0  0  0  0  0  0  0
   -3.3756    0.1824   -0.9145 C   0  0  0  0  0  0  0  0  0  0  0  0
   -2.4759   -0.3205    0.0587 C   0  0  0  0  0  0  0  0  0  0  0  0
   -1.1512    0.3000    0.3012 C   0  0  0  0  0  0  0  0  0  0  0  0
   -0.2363    0.4725   -0.7504 C   0  0  0  0  0  0  0  0  0  0  0  0
    1.0144    1.0466   -0.5084 C   0  0  0  0  0  0  0  0  0  0  0  0
    1.3720    1.4487    0.7879 C   0  0  0  0  0  0  0  0  0  0  0  0
    2.7265    2.0491    1.0458 C   0  0  0  0  0  0  0  0  0  0  0  0
    3.7778    0.9736    1.0775 C   0  0  0  0  0  0  0  0  0  0  0  0
    4.5467    0.6982   -0.0623 C   0  0  0  0  0  0  0  0  0  0  0  0
    5.5001   -0.3236   -0.0429 C   0  0  0  0  0  0  0  0  0  0  0  0
    5.6916   -1.0951    1.1188 C   0  0  0  0  0  0  0  0  0  0  0  0
    6.6298   -2.1373    1.1936 O   0  0  0  0  0  0  0  0  0  0  0  0
    7.5057   -2.5286    0.1396 C   0  0  0  0  0  0  0  0  0  0  0  0
    8.3296   -1.4744   -0.2106 F   0  0  0  0  0  0  0  0  0  0  0  0
    6.7747   -2.9417   -0.9593 F   0  0  0  0  0  0  0  0  0  0  0  0
    8.2891   -3.5799    0.5754 F   0  0  0  0  0  0  0  0  0  0  0  0
    4.9146   -0.8233    2.2497 C   0  0  0  0  0  0  0  0  0  0  0  0
    3.9638    0.2015    2.2318 C   0  0  0  0  0  0  0  0  0  0  0  0
    0.4705    1.2469    1.8433 C   0  0  0  0  0  0  0  0  0  0  0  0
   -0.7824    0.6772    1.6010 C   0  0  0  0  0  0  0  0  0  0  0  0
   -2.8108   -1.4236    0.7831 N   0  0  0  0  0  0  0  0  0  0  0  0
   -3.9805   -2.0960    0.5879 C   0  0  0  0  0  0  0  0  0  0  0  0
   -4.2752   -3.2388    1.3482 C   0  0  0  0  0  0  0  0  0  0  0  0
   -5.4679   -3.9360    1.1402 C   0  0  0  0  0  0  0  0  0  0  0  0
   -6.3776   -3.4976    0.1773 C   0  0  0  0  0  0  0  0  0  0  0  0
   -6.0991   -2.3619   -0.5843 C   0  0  0  0  0  0  0  0  0  0  0  0
   -4.8974   -1.6515   -0.3885 C   0  0  0  0  0  0  0  0  0  0  0  0
   -4.5883   -0.5053   -1.1375 C   0  0  0  0  0  0  0  0  0  0  0  0
   -5.4085   -0.0808   -1.9965 O   0  0  0  0  0  0  0  0  0  0  0  0
  1  2  1  0
  2  3  1  0
  3  4  1  0
  4  5  2  0
  4  6  1  0
  6  7  4  0
  7  8  1  0
  8  9  4  0
  9 10  4  0
 10 11  4  0
 11 12  1  0
 12 13  1  0
 13 14  4  0
 14 15  4  0
 15 16  4  0
 16 17  1  0
 17 18  1  0
 18 19  1  0
 18 20  1  0
 18 21  1  0
 16 22  4  0
 22 23  4  0
 11 24  4  0
 24 25  4  0
  7 26  4  0
 26 27  4  0
 27 28  4  0
 28 29  4  0
 29 30  4  0
 30 31  4  0
 31 32  4  0
 32 33  4  0
 33 34  2  0
 23 13  4  0
 25  8  4  0
 32 27  4  0
 33  6  4  0
M  END
>  <SMILES>  (23) 
CCOC(=O)c4c(c2ccc(Cc1ccc(OC(F)(F)F)cc1)cc2)[nH]c3ccccc3c4=O

>  <NumConformers>  (23) 
48

>  <EnergyUnits>  (23) 
RDKit_forcefield

>  <Processing_Time>  (23) 
83.7s

>  <Original_Conformers>  (23) 
500

>  <Total_Conformers>  (23) 
48

>  <Energy>  (23) 
68.998948398911423

>  <Energy_Unit>  (23) 
RDKit_forcefield

>  <Rank>  (23) 
23

>  <Conformer_Index>  (23) 
22

$$$$
GN-171
     RDKit          3D

 34 37  0  0  0  0  0  0  0  0999 V2000
   -1.1495    2.0386   -4.6937 C   0  0  0  0  0  0  0  0  0  0  0  0
   -0.6191    1.1003   -3.6238 C   0  0  0  0  0  0  0  0  0  0  0  0
   -1.6625    0.7785   -2.7105 O   0  0  0  0  0  0  0  0  0  0  0  0
   -1.4647   -0.0523   -1.6035 C   0  0  0  0  0  0  0  0  0  0  0  0
   -0.3269   -0.5532   -1.3864 O   0  0  0  0  0  0  0  0  0  0  0  0
   -2.6007   -0.3614   -0.6973 C   0  0  0  0  0  0  0  0  0  0  0  0
   -2.4118   -0.5341    0.6981 C   0  0  0  0  0  0  0  0  0  0  0  0
   -1.1071   -0.2698    1.3473 C   0  0  0  0  0  0  0  0  0  0  0  0
   -0.5115    0.9980    1.2583 C   0  0  0  0  0  0  0  0  0  0  0  0
    0.7180    1.2433    1.8749 C   0  0  0  0  0  0  0  0  0  0  0  0
    1.3635    0.2283    2.5983 C   0  0  0  0  0  0  0  0  0  0  0  0
    2.7200    0.4738    3.2006 C   0  0  0  0  0  0  0  0  0  0  0  0
    3.7876    0.2831    2.1578 C   0  0  0  0  0  0  0  0  0  0  0  0
    4.2432    1.3748    1.4019 C   0  0  0  0  0  0  0  0  0  0  0  0
    5.1947    1.1898    0.3947 C   0  0  0  0  0  0  0  0  0  0  0  0
    5.6971   -0.0968    0.1196 C   0  0  0  0  0  0  0  0  0  0  0  0
    6.6488   -0.3415   -0.8837 O   0  0  0  0  0  0  0  0  0  0  0  0
    7.2248    0.6490   -1.7317 C   0  0  0  0  0  0  0  0  0  0  0  0
    6.2388    1.2715   -2.4771 F   0  0  0  0  0  0  0  0  0  0  0  0
    7.9056    1.5846   -0.9749 F   0  0  0  0  0  0  0  0  0  0  0  0
    8.1154    0.0396   -2.5941 F   0  0  0  0  0  0  0  0  0  0  0  0
    5.2327   -1.1839    0.8706 C   0  0  0  0  0  0  0  0  0  0  0  0
    4.2835   -0.9990    1.8799 C   0  0  0  0  0  0  0  0  0  0  0  0
    0.7635   -1.0368    2.6929 C   0  0  0  0  0  0  0  0  0  0  0  0
   -0.4698   -1.2805    2.0817 C   0  0  0  0  0  0  0  0  0  0  0  0
   -3.4609   -0.9085    1.4858 N   0  0  0  0  0  0  0  0  0  0  0  0
   -4.7136   -1.0953    0.9850 C   0  0  0  0  0  0  0  0  0  0  0  0
   -5.7668   -1.4692    1.8366 C   0  0  0  0  0  0  0  0  0  0  0  0
   -7.0533   -1.6557    1.3264 C   0  0  0  0  0  0  0  0  0  0  0  0
   -7.3007   -1.4715   -0.0347 C   0  0  0  0  0  0  0  0  0  0  0  0
   -6.2632   -1.0998   -0.8939 C   0  0  0  0  0  0  0  0  0  0  0  0
   -4.9601   -0.9067   -0.3931 C   0  0  0  0  0  0  0  0  0  0  0  0
   -3.8929   -0.5422   -1.2329 C   0  0  0  0  0  0  0  0  0  0  0  0
   -4.0894   -0.3990   -2.4723 O   0  0  0  0  0  0  0  0  0  0  0  0
  1  2  1  0
  2  3  1  0
  3  4  1  0
  4  5  2  0
  4  6  1  0
  6  7  4  0
  7  8  1  0
  8  9  4  0
  9 10  4  0
 10 11  4  0
 11 12  1  0
 12 13  1  0
 13 14  4  0
 14 15  4  0
 15 16  4  0
 16 17  1  0
 17 18  1  0
 18 19  1  0
 18 20  1  0
 18 21  1  0
 16 22  4  0
 22 23  4  0
 11 24  4  0
 24 25  4  0
  7 26  4  0
 26 27  4  0
 27 28  4  0
 28 29  4  0
 29 30  4  0
 30 31  4  0
 31 32  4  0
 32 33  4  0
 33 34  2  0
 23 13  4  0
 25  8  4  0
 32 27  4  0
 33  6  4  0
M  END
>  <SMILES>  (24) 
CCOC(=O)c4c(c2ccc(Cc1ccc(OC(F)(F)F)cc1)cc2)[nH]c3ccccc3c4=O

>  <NumConformers>  (24) 
48

>  <EnergyUnits>  (24) 
RDKit_forcefield

>  <Processing_Time>  (24) 
83.7s

>  <Original_Conformers>  (24) 
500

>  <Total_Conformers>  (24) 
48

>  <Energy>  (24) 
69.036258834029653

>  <Energy_Unit>  (24) 
RDKit_forcefield

>  <Rank>  (24) 
24

>  <Conformer_Index>  (24) 
23

$$$$
GN-171
     RDKit          3D

 34 37  0  0  0  0  0  0  0  0999 V2000
   -3.5342    2.0034   -5.5112 C   0  0  0  0  0  0  0  0  0  0  0  0
   -2.6541    0.9452   -4.8661 C   0  0  0  0  0  0  0  0  0  0  0  0
   -3.0564    0.7502   -3.5146 O   0  0  0  0  0  0  0  0  0  0  0  0
   -2.4309   -0.1684   -2.6655 C   0  0  0  0  0  0  0  0  0  0  0  0
   -1.4822   -0.8813   -3.0951 O   0  0  0  0  0  0  0  0  0  0  0  0
   -2.9012   -0.3170   -1.2641 C   0  0  0  0  0  0  0  0  0  0  0  0
   -2.0021   -0.5952   -0.2019 C   0  0  0  0  0  0  0  0  0  0  0  0
   -0.5334   -0.6152   -0.4032 C   0  0  0  0  0  0  0  0  0  0  0  0
    0.2117   -1.7421   -0.0248 C   0  0  0  0  0  0  0  0  0  0  0  0
    1.5995   -1.7586   -0.1903 C   0  0  0  0  0  0  0  0  0  0  0  0
    2.2616   -0.6471   -0.7351 C   0  0  0  0  0  0  0  0  0  0  0  0
    3.7595   -0.6496   -0.8753 C   0  0  0  0  0  0  0  0  0  0  0  0
    4.3993   -0.1160    0.3775 C   0  0  0  0  0  0  0  0  0  0  0  0
    4.6429    1.2585    0.5184 C   0  0  0  0  0  0  0  0  0  0  0  0
    5.2030    1.7578    1.6975 C   0  0  0  0  0  0  0  0  0  0  0  0
    5.5196    0.8985    2.7564 C   0  0  0  0  0  0  0  0  0  0  0  0
    6.0796    1.4559    3.9173 O   0  0  0  0  0  0  0  0  0  0  0  0
    6.4542    0.7259    5.0836 C   0  0  0  0  0  0  0  0  0  0  0  0
    6.9669    1.6054    6.0173 F   0  0  0  0  0  0  0  0  0  0  0  0
    7.4255   -0.2079    4.7701 F   0  0  0  0  0  0  0  0  0  0  0  0
    5.3495    0.0940    5.6258 F   0  0  0  0  0  0  0  0  0  0  0  0
    5.2644   -0.4800    2.6197 C   0  0  0  0  0  0  0  0  0  0  0  0
    4.7045   -0.9800    1.4402 C   0  0  0  0  0  0  0  0  0  0  0  0
    1.5194    0.4906   -1.0886 C   0  0  0  0  0  0  0  0  0  0  0  0
    0.1319    0.5073   -0.9225 C   0  0  0  0  0  0  0  0  0  0  0  0
   -2.4837   -0.8084    1.0574 N   0  0  0  0  0  0  0  0  0  0  0  0
   -3.8117   -0.7332    1.3497 C   0  0  0  0  0  0  0  0  0  0  0  0
   -4.2598   -0.9477    2.6639 C   0  0  0  0  0  0  0  0  0  0  0  0
   -5.6204   -0.8642    2.9673 C   0  0  0  0  0  0  0  0  0  0  0  0
   -6.5445   -0.5656    1.9650 C   0  0  0  0  0  0  0  0  0  0  0  0
   -6.1134   -0.3497    0.6536 C   0  0  0  0  0  0  0  0  0  0  0  0
   -4.7436   -0.4303    0.3329 C   0  0  0  0  0  0  0  0  0  0  0  0
   -4.2795   -0.2270   -0.9784 C   0  0  0  0  0  0  0  0  0  0  0  0
   -5.1027    0.0156   -1.9050 O   0  0  0  0  0  0  0  0  0  0  0  0
  1  2  1  0
  2  3  1  0
  3  4  1  0
  4  5  2  0
  4  6  1  0
  6  7  4  0
  7  8  1  0
  8  9  4  0
  9 10  4  0
 10 11  4  0
 11 12  1  0
 12 13  1  0
 13 14  4  0
 14 15  4  0
 15 16  4  0
 16 17  1  0
 17 18  1  0
 18 19  1  0
 18 20  1  0
 18 21  1  0
 16 22  4  0
 22 23  4  0
 11 24  4  0
 24 25  4  0
  7 26  4  0
 26 27  4  0
 27 28  4  0
 28 29  4  0
 29 30  4  0
 30 31  4  0
 31 32  4  0
 32 33  4  0
 33 34  2  0
 23 13  4  0
 25  8  4  0
 32 27  4  0
 33  6  4  0
M  END
>  <SMILES>  (25) 
CCOC(=O)c4c(c2ccc(Cc1ccc(OC(F)(F)F)cc1)cc2)[nH]c3ccccc3c4=O

>  <NumConformers>  (25) 
48

>  <EnergyUnits>  (25) 
RDKit_forcefield

>  <Processing_Time>  (25) 
83.7s

>  <Original_Conformers>  (25) 
500

>  <Total_Conformers>  (25) 
48

>  <Energy>  (25) 
69.072340485868082

>  <Energy_Unit>  (25) 
RDKit_forcefield

>  <Rank>  (25) 
25

>  <Conformer_Index>  (25) 
24

$$$$
GN-171
     RDKit          3D

 34 37  0  0  0  0  0  0  0  0999 V2000
   -3.3243   -1.3272   -5.8317 C   0  0  0  0  0  0  0  0  0  0  0  0
   -2.5728   -0.3120   -4.9860 C   0  0  0  0  0  0  0  0  0  0  0  0
   -2.9816   -0.4280   -3.6274 O   0  0  0  0  0  0  0  0  0  0  0  0
   -2.4646    0.3824   -2.6115 C   0  0  0  0  0  0  0  0  0  0  0  0
   -1.6155    1.2748   -2.8858 O   0  0  0  0  0  0  0  0  0  0  0  0
   -2.9342    0.2032   -1.2133 C   0  0  0  0  0  0  0  0  0  0  0  0
   -2.0645    0.3834   -0.1063 C   0  0  0  0  0  0  0  0  0  0  0  0
   -0.6116    0.6208   -0.2817 C   0  0  0  0  0  0  0  0  0  0  0  0
   -0.0058    1.7377    0.3131 C   0  0  0  0  0  0  0  0  0  0  0  0
    1.3673    1.9555    0.1701 C   0  0  0  0  0  0  0  0  0  0  0  0
    2.1542    1.0582   -0.5690 C   0  0  0  0  0  0  0  0  0  0  0  0
    3.6385    1.2713   -0.6894 C   0  0  0  0  0  0  0  0  0  0  0  0
    4.3547    0.5914    0.4457 C   0  0  0  0  0  0  0  0  0  0  0  0
    4.5677    1.2688    1.6559 C   0  0  0  0  0  0  0  0  0  0  0  0
    5.1995    0.6258    2.7247 C   0  0  0  0  0  0  0  0  0  0  0  0
    5.6206   -0.7126    2.6000 C   0  0  0  0  0  0  0  0  0  0  0  0
    6.2594   -1.4079    3.6395 O   0  0  0  0  0  0  0  0  0  0  0  0
    6.5605   -0.8717    4.9260 C   0  0  0  0  0  0  0  0  0  0  0  0
    5.3957   -0.4922    5.5688 F   0  0  0  0  0  0  0  0  0  0  0  0
    7.4076    0.2152    4.8034 F   0  0  0  0  0  0  0  0  0  0  0  0
    7.1891   -1.8431    5.6805 F   0  0  0  0  0  0  0  0  0  0  0  0
    5.3953   -1.3877    1.3944 C   0  0  0  0  0  0  0  0  0  0  0  0
    4.7636   -0.7453    0.3260 C   0  0  0  0  0  0  0  0  0  0  0  0
    1.5529   -0.0738   -1.1412 C   0  0  0  0  0  0  0  0  0  0  0  0
    0.1802   -0.2920   -0.9974 C   0  0  0  0  0  0  0  0  0  0  0  0
   -2.5549    0.2933    1.1643 N   0  0  0  0  0  0  0  0  0  0  0  0
   -3.8602    0.0010    1.4203 C   0  0  0  0  0  0  0  0  0  0  0  0
   -4.3169   -0.0942    2.7456 C   0  0  0  0  0  0  0  0  0  0  0  0
   -5.6532   -0.4014    3.0104 C   0  0  0  0  0  0  0  0  0  0  0  0
   -6.5443   -0.6166    1.9580 C   0  0  0  0  0  0  0  0  0  0  0  0
   -6.1044   -0.5253    0.6350 C   0  0  0  0  0  0  0  0  0  0  0  0
   -4.7587   -0.2165    0.3527 C   0  0  0  0  0  0  0  0  0  0  0  0
   -4.2876   -0.1087   -0.9674 C   0  0  0  0  0  0  0  0  0  0  0  0
   -5.0846   -0.2711   -1.9334 O   0  0  0  0  0  0  0  0  0  0  0  0
  1  2  1  0
  2  3  1  0
  3  4  1  0
  4  5  2  0
  4  6  1  0
  6  7  4  0
  7  8  1  0
  8  9  4  0
  9 10  4  0
 10 11  4  0
 11 12  1  0
 12 13  1  0
 13 14  4  0
 14 15  4  0
 15 16  4  0
 16 17  1  0
 17 18  1  0
 18 19  1  0
 18 20  1  0
 18 21  1  0
 16 22  4  0
 22 23  4  0
 11 24  4  0
 24 25  4  0
  7 26  4  0
 26 27  4  0
 27 28  4  0
 28 29  4  0
 29 30  4  0
 30 31  4  0
 31 32  4  0
 32 33  4  0
 33 34  2  0
 23 13  4  0
 25  8  4  0
 32 27  4  0
 33  6  4  0
M  END
>  <SMILES>  (26) 
CCOC(=O)c4c(c2ccc(Cc1ccc(OC(F)(F)F)cc1)cc2)[nH]c3ccccc3c4=O

>  <NumConformers>  (26) 
48

>  <EnergyUnits>  (26) 
RDKit_forcefield

>  <Processing_Time>  (26) 
83.7s

>  <Original_Conformers>  (26) 
500

>  <Total_Conformers>  (26) 
48

>  <Energy>  (26) 
69.072482411752489

>  <Energy_Unit>  (26) 
RDKit_forcefield

>  <Rank>  (26) 
26

>  <Conformer_Index>  (26) 
25

$$$$
GN-171
     RDKit          3D

 34 37  0  0  0  0  0  0  0  0999 V2000
   -3.2691    2.5743   -5.2050 C   0  0  0  0  0  0  0  0  0  0  0  0
   -2.4993    1.3693   -4.6888 C   0  0  0  0  0  0  0  0  0  0  0  0
   -2.9404    1.0497   -3.3734 O   0  0  0  0  0  0  0  0  0  0  0  0
   -2.3963   -0.0021   -2.6295 C   0  0  0  0  0  0  0  0  0  0  0  0
   -1.4910   -0.7270   -3.1274 O   0  0  0  0  0  0  0  0  0  0  0  0
   -2.9007   -0.2746   -1.2595 C   0  0  0  0  0  0  0  0  0  0  0  0
   -2.0379   -0.7125   -0.2216 C   0  0  0  0  0  0  0  0  0  0  0  0
   -0.5682   -0.7878   -0.4034 C   0  0  0  0  0  0  0  0  0  0  0  0
    0.1622    0.3439   -0.8015 C   0  0  0  0  0  0  0  0  0  0  0  0
    1.5505    0.2729   -0.9456 C   0  0  0  0  0  0  0  0  0  0  0  0
    2.2291   -0.9287   -0.6889 C   0  0  0  0  0  0  0  0  0  0  0  0
    3.7280   -0.9923   -0.8034 C   0  0  0  0  0  0  0  0  0  0  0  0
    4.3669   -0.5509    0.4854 C   0  0  0  0  0  0  0  0  0  0  0  0
    4.7180    0.7940    0.6785 C   0  0  0  0  0  0  0  0  0  0  0  0
    5.2777    1.2122    1.8896 C   0  0  0  0  0  0  0  0  0  0  0  0
    5.4843    0.2887    2.9330 C   0  0  0  0  0  0  0  0  0  0  0  0
    6.0380    0.6528    4.1711 O   0  0  0  0  0  0  0  0  0  0  0  0
    6.4536    1.9681    4.5329 C   0  0  0  0  0  0  0  0  0  0  0  0
    6.9394    1.9450    5.8258 F   0  0  0  0  0  0  0  0  0  0  0  0
    7.4591    2.4000    3.6866 F   0  0  0  0  0  0  0  0  0  0  0  0
    5.3813    2.8404    4.4752 F   0  0  0  0  0  0  0  0  0  0  0  0
    5.1233   -1.0501    2.7388 C   0  0  0  0  0  0  0  0  0  0  0  0
    4.5648   -1.4687    1.5279 C   0  0  0  0  0  0  0  0  0  0  0  0
    1.5022   -2.0518   -0.2640 C   0  0  0  0  0  0  0  0  0  0  0  0
    0.1135   -1.9815   -0.1222 C   0  0  0  0  0  0  0  0  0  0  0  0
   -2.5546   -1.0342    1.0001 N   0  0  0  0  0  0  0  0  0  0  0  0
   -3.8826   -0.9208    1.2800 C   0  0  0  0  0  0  0  0  0  0  0  0
   -4.3671   -1.2518    2.5564 C   0  0  0  0  0  0  0  0  0  0  0  0
   -5.7273   -1.1296    2.8479 C   0  0  0  0  0  0  0  0  0  0  0  0
   -6.6149   -0.6759    1.8712 C   0  0  0  0  0  0  0  0  0  0  0  0
   -6.1474   -0.3426    0.5974 C   0  0  0  0  0  0  0  0  0  0  0  0
   -4.7775   -0.4608    0.2891 C   0  0  0  0  0  0  0  0  0  0  0  0
   -4.2776   -0.1420   -0.9855 C   0  0  0  0  0  0  0  0  0  0  0  0
   -5.0682    0.2430   -1.8919 O   0  0  0  0  0  0  0  0  0  0  0  0
  1  2  1  0
  2  3  1  0
  3  4  1  0
  4  5  2  0
  4  6  1  0
  6  7  4  0
  7  8  1  0
  8  9  4  0
  9 10  4  0
 10 11  4  0
 11 12  1  0
 12 13  1  0
 13 14  4  0
 14 15  4  0
 15 16  4  0
 16 17  1  0
 17 18  1  0
 18 19  1  0
 18 20  1  0
 18 21  1  0
 16 22  4  0
 22 23  4  0
 11 24  4  0
 24 25  4  0
  7 26  4  0
 26 27  4  0
 27 28  4  0
 28 29  4  0
 29 30  4  0
 30 31  4  0
 31 32  4  0
 32 33  4  0
 33 34  2  0
 23 13  4  0
 25  8  4  0
 32 27  4  0
 33  6  4  0
M  END
>  <SMILES>  (27) 
CCOC(=O)c4c(c2ccc(Cc1ccc(OC(F)(F)F)cc1)cc2)[nH]c3ccccc3c4=O

>  <NumConformers>  (27) 
48

>  <EnergyUnits>  (27) 
RDKit_forcefield

>  <Processing_Time>  (27) 
83.7s

>  <Original_Conformers>  (27) 
500

>  <Total_Conformers>  (27) 
48

>  <Energy>  (27) 
69.09477641428515

>  <Energy_Unit>  (27) 
RDKit_forcefield

>  <Rank>  (27) 
27

>  <Conformer_Index>  (27) 
26

$$$$
GN-171
     RDKit          3D

 34 37  0  0  0  0  0  0  0  0999 V2000
   -3.0027   -1.5785   -5.7565 C   0  0  0  0  0  0  0  0  0  0  0  0
   -2.3798   -0.4623   -4.9337 C   0  0  0  0  0  0  0  0  0  0  0  0
   -2.8286   -0.5561   -3.5860 O   0  0  0  0  0  0  0  0  0  0  0  0
   -2.4147    0.3326   -2.5886 C   0  0  0  0  0  0  0  0  0  0  0  0
   -1.6289    1.2790   -2.8717 O   0  0  0  0  0  0  0  0  0  0  0  0
   -2.9220    0.1735   -1.2017 C   0  0  0  0  0  0  0  0  0  0  0  0
   -2.1092    0.4584   -0.0739 C   0  0  0  0  0  0  0  0  0  0  0  0
   -0.6702    0.7894   -0.2085 C   0  0  0  0  0  0  0  0  0  0  0  0
    0.2072   -0.0906   -0.8630 C   0  0  0  0  0  0  0  0  0  0  0  0
    1.5676    0.2130   -0.9615 C   0  0  0  0  0  0  0  0  0  0  0  0
    2.0712    1.3988   -0.4043 C   0  0  0  0  0  0  0  0  0  0  0  0
    3.5439    1.7003   -0.4678 C   0  0  0  0  0  0  0  0  0  0  0  0
    4.2566    1.0472    0.6852 C   0  0  0  0  0  0  0  0  0  0  0  0
    4.3315    1.6929    1.9286 C   0  0  0  0  0  0  0  0  0  0  0  0
    4.9524    1.0657    3.0124 C   0  0  0  0  0  0  0  0  0  0  0  0
    5.5004   -0.2155    2.8767 C   0  0  0  0  0  0  0  0  0  0  0  0
    6.1058   -0.8003    4.0010 O   0  0  0  0  0  0  0  0  0  0  0  0
    6.7023   -2.0953    4.0352 C   0  0  0  0  0  0  0  0  0  0  0  0
    7.1809   -2.3351    5.3087 F   0  0  0  0  0  0  0  0  0  0  0  0
    7.7577   -2.1573    3.1431 F   0  0  0  0  0  0  0  0  0  0  0  0
    5.7639   -3.0620    3.7224 F   0  0  0  0  0  0  0  0  0  0  0  0
    5.4202   -0.8662    1.6301 C   0  0  0  0  0  0  0  0  0  0  0  0
    4.7972   -0.2403    0.5466 C   0  0  0  0  0  0  0  0  0  0  0  0
    1.1987    2.2656    0.2725 C   0  0  0  0  0  0  0  0  0  0  0  0
   -0.1624    1.9628    0.3692 C   0  0  0  0  0  0  0  0  0  0  0  0
   -2.6396    0.3836    1.1817 N   0  0  0  0  0  0  0  0  0  0  0  0
   -3.9300    0.0091    1.4042 C   0  0  0  0  0  0  0  0  0  0  0  0
   -4.4288   -0.0658    2.7157 C   0  0  0  0  0  0  0  0  0  0  0  0
   -5.7493   -0.4574    2.9465 C   0  0  0  0  0  0  0  0  0  0  0  0
   -6.5826   -0.7780    1.8736 C   0  0  0  0  0  0  0  0  0  0  0  0
   -6.1004   -0.7076    0.5640 C   0  0  0  0  0  0  0  0  0  0  0  0
   -4.7701   -0.3142    0.3161 C   0  0  0  0  0  0  0  0  0  0  0  0
   -4.2584   -0.2245   -0.9901 C   0  0  0  0  0  0  0  0  0  0  0  0
   -5.0054   -0.4801   -1.9757 O   0  0  0  0  0  0  0  0  0  0  0  0
  1  2  1  0
  2  3  1  0
  3  4  1  0
  4  5  2  0
  4  6  1  0
  6  7  4  0
  7  8  1  0
  8  9  4  0
  9 10  4  0
 10 11  4  0
 11 12  1  0
 12 13  1  0
 13 14  4  0
 14 15  4  0
 15 16  4  0
 16 17  1  0
 17 18  1  0
 18 19  1  0
 18 20  1  0
 18 21  1  0
 16 22  4  0
 22 23  4  0
 11 24  4  0
 24 25  4  0
  7 26  4  0
 26 27  4  0
 27 28  4  0
 28 29  4  0
 29 30  4  0
 30 31  4  0
 31 32  4  0
 32 33  4  0
 33 34  2  0
 23 13  4  0
 25  8  4  0
 32 27  4  0
 33  6  4  0
M  END
>  <SMILES>  (28) 
CCOC(=O)c4c(c2ccc(Cc1ccc(OC(F)(F)F)cc1)cc2)[nH]c3ccccc3c4=O

>  <NumConformers>  (28) 
48

>  <EnergyUnits>  (28) 
RDKit_forcefield

>  <Processing_Time>  (28) 
83.7s

>  <Original_Conformers>  (28) 
500

>  <Total_Conformers>  (28) 
48

>  <Energy>  (28) 
69.097713586049977

>  <Energy_Unit>  (28) 
RDKit_forcefield

>  <Rank>  (28) 
28

>  <Conformer_Index>  (28) 
27

$$$$
GN-171
     RDKit          3D

 34 37  0  0  0  0  0  0  0  0999 V2000
    0.6544   -3.1689   -1.4988 C   0  0  0  0  0  0  0  0  0  0  0  0
    0.7333   -1.6489   -1.5498 C   0  0  0  0  0  0  0  0  0  0  0  0
   -0.3990   -1.0676   -0.9071 O   0  0  0  0  0  0  0  0  0  0  0  0
   -1.6488   -0.9137   -1.5246 C   0  0  0  0  0  0  0  0  0  0  0  0
   -1.8267   -1.3149   -2.7087 O   0  0  0  0  0  0  0  0  0  0  0  0
   -2.7622   -0.2626   -0.7840 C   0  0  0  0  0  0  0  0  0  0  0  0
   -2.5217    0.8046    0.1201 C   0  0  0  0  0  0  0  0  0  0  0  0
   -1.1768    1.4081    0.2703 C   0  0  0  0  0  0  0  0  0  0  0  0
   -0.5014    1.9306   -0.8455 C   0  0  0  0  0  0  0  0  0  0  0  0
    0.8049    2.4077   -0.7184 C   0  0  0  0  0  0  0  0  0  0  0  0
    1.4451    2.3932    0.5319 C   0  0  0  0  0  0  0  0  0  0  0  0
    2.9014    2.7570    0.6402 C   0  0  0  0  0  0  0  0  0  0  0  0
    3.7345    1.5025    0.6803 C   0  0  0  0  0  0  0  0  0  0  0  0
    3.8398    0.6909   -0.4624 C   0  0  0  0  0  0  0  0  0  0  0  0
    4.5263   -0.5250   -0.4054 C   0  0  0  0  0  0  0  0  0  0  0  0
    5.1300   -0.9434    0.7977 C   0  0  0  0  0  0  0  0  0  0  0  0
    5.8111   -2.1656    0.9197 O   0  0  0  0  0  0  0  0  0  0  0  0
    5.9116   -3.1574   -0.0985 C   0  0  0  0  0  0  0  0  0  0  0  0
    6.6088   -4.2420    0.4024 F   0  0  0  0  0  0  0  0  0  0  0  0
    4.6464   -3.5766   -0.4860 F   0  0  0  0  0  0  0  0  0  0  0  0
    6.5966   -2.6509   -1.1900 F   0  0  0  0  0  0  0  0  0  0  0  0
    5.0454   -0.1186    1.9269 C   0  0  0  0  0  0  0  0  0  0  0  0
    4.3447    1.0904    1.8751 C   0  0  0  0  0  0  0  0  0  0  0  0
    0.7516    1.9161    1.6565 C   0  0  0  0  0  0  0  0  0  0  0  0
   -0.5539    1.4325    1.5277 C   0  0  0  0  0  0  0  0  0  0  0  0
   -3.5494    1.3176    0.8557 N   0  0  0  0  0  0  0  0  0  0  0  0
   -4.8275    0.8629    0.7317 C   0  0  0  0  0  0  0  0  0  0  0  0
   -5.8569    1.4275    1.5027 C   0  0  0  0  0  0  0  0  0  0  0  0
   -7.1690    0.9668    1.3748 C   0  0  0  0  0  0  0  0  0  0  0  0
   -7.4661   -0.0595    0.4778 C   0  0  0  0  0  0  0  0  0  0  0  0
   -6.4529   -0.6299   -0.2966 C   0  0  0  0  0  0  0  0  0  0  0  0
   -5.1245   -0.1753   -0.1782 C   0  0  0  0  0  0  0  0  0  0  0  0
   -4.0815   -0.7376   -0.9349 C   0  0  0  0  0  0  0  0  0  0  0  0
   -4.3248   -1.6836   -1.7353 O   0  0  0  0  0  0  0  0  0  0  0  0
  1  2  1  0
  2  3  1  0
  3  4  1  0
  4  5  2  0
  4  6  1  0
  6  7  4  0
  7  8  1  0
  8  9  4  0
  9 10  4  0
 10 11  4  0
 11 12  1  0
 12 13  1  0
 13 14  4  0
 14 15  4  0
 15 16  4  0
 16 17  1  0
 17 18  1  0
 18 19  1  0
 18 20  1  0
 18 21  1  0
 16 22  4  0
 22 23  4  0
 11 24  4  0
 24 25  4  0
  7 26  4  0
 26 27  4  0
 27 28  4  0
 28 29  4  0
 29 30  4  0
 30 31  4  0
 31 32  4  0
 32 33  4  0
 33 34  2  0
 23 13  4  0
 25  8  4  0
 32 27  4  0
 33  6  4  0
M  END
>  <SMILES>  (29) 
CCOC(=O)c4c(c2ccc(Cc1ccc(OC(F)(F)F)cc1)cc2)[nH]c3ccccc3c4=O

>  <NumConformers>  (29) 
48

>  <EnergyUnits>  (29) 
RDKit_forcefield

>  <Processing_Time>  (29) 
83.7s

>  <Original_Conformers>  (29) 
500

>  <Total_Conformers>  (29) 
48

>  <Energy>  (29) 
69.109605243763383

>  <Energy_Unit>  (29) 
RDKit_forcefield

>  <Rank>  (29) 
29

>  <Conformer_Index>  (29) 
28

$$$$
GN-171
     RDKit          3D

 34 37  0  0  0  0  0  0  0  0999 V2000
    0.1510   -3.7092    0.7101 C   0  0  0  0  0  0  0  0  0  0  0  0
   -0.8540   -3.8712   -0.4254 C   0  0  0  0  0  0  0  0  0  0  0  0
   -1.8898   -2.8965   -0.3214 O   0  0  0  0  0  0  0  0  0  0  0  0
   -1.7051   -1.5438   -0.6303 C   0  0  0  0  0  0  0  0  0  0  0  0
   -0.6198   -1.1512   -1.1407 O   0  0  0  0  0  0  0  0  0  0  0  0
   -2.7941   -0.5722   -0.3648 C   0  0  0  0  0  0  0  0  0  0  0  0
   -2.5203    0.7277    0.1310 C   0  0  0  0  0  0  0  0  0  0  0  0
   -1.1541    1.1328    0.5381 C   0  0  0  0  0  0  0  0  0  0  0  0
   -0.4525    0.3994    1.5090 C   0  0  0  0  0  0  0  0  0  0  0  0
    0.8400    0.7775    1.8805 C   0  0  0  0  0  0  0  0  0  0  0  0
    1.4430    1.9039    1.2994 C   0  0  0  0  0  0  0  0  0  0  0  0
    2.8587    2.2706    1.6517 C   0  0  0  0  0  0  0  0  0  0  0  0
    3.8202    1.5001    0.7880 C   0  0  0  0  0  0  0  0  0  0  0  0
    4.3017    0.2496    1.2047 C   0  0  0  0  0  0  0  0  0  0  0  0
    5.1576   -0.4887    0.3820 C   0  0  0  0  0  0  0  0  0  0  0  0
    5.5380    0.0118   -0.8785 C   0  0  0  0  0  0  0  0  0  0  0  0
    6.3927   -0.6867   -1.7466 O   0  0  0  0  0  0  0  0  0  0  0  0
    6.9828   -1.9564   -1.4762 C   0  0  0  0  0  0  0  0  0  0  0  0
    7.7835   -1.8800   -0.3507 F   0  0  0  0  0  0  0  0  0  0  0  0
    7.7636   -2.3264   -2.5538 F   0  0  0  0  0  0  0  0  0  0  0  0
    5.9983   -2.9104   -1.2908 F   0  0  0  0  0  0  0  0  0  0  0  0
    5.0466    1.2551   -1.2940 C   0  0  0  0  0  0  0  0  0  0  0  0
    4.1908    1.9933   -0.4719 C   0  0  0  0  0  0  0  0  0  0  0  0
    0.7372    2.6431    0.3367 C   0  0  0  0  0  0  0  0  0  0  0  0
   -0.5569    2.2660   -0.0334 C   0  0  0  0  0  0  0  0  0  0  0  0
   -3.5374    1.6238    0.2864 N   0  0  0  0  0  0  0  0  0  0  0  0
   -4.8332    1.3044    0.0129 C   0  0  0  0  0  0  0  0  0  0  0  0
   -5.8509    2.2539    0.2026 C   0  0  0  0  0  0  0  0  0  0  0  0
   -7.1809    1.9260   -0.0695 C   0  0  0  0  0  0  0  0  0  0  0  0
   -7.5075    0.6505   -0.5321 C   0  0  0  0  0  0  0  0  0  0  0  0
   -6.5062   -0.3046   -0.7250 C   0  0  0  0  0  0  0  0  0  0  0  0
   -5.1602    0.0116   -0.4538 C   0  0  0  0  0  0  0  0  0  0  0  0
   -4.1292   -0.9250   -0.6447 C   0  0  0  0  0  0  0  0  0  0  0  0
   -4.3984   -2.0769   -1.0868 O   0  0  0  0  0  0  0  0  0  0  0  0
  1  2  1  0
  2  3  1  0
  3  4  1  0
  4  5  2  0
  4  6  1  0
  6  7  4  0
  7  8  1  0
  8  9  4  0
  9 10  4  0
 10 11  4  0
 11 12  1  0
 12 13  1  0
 13 14  4  0
 14 15  4  0
 15 16  4  0
 16 17  1  0
 17 18  1  0
 18 19  1  0
 18 20  1  0
 18 21  1  0
 16 22  4  0
 22 23  4  0
 11 24  4  0
 24 25  4  0
  7 26  4  0
 26 27  4  0
 27 28  4  0
 28 29  4  0
 29 30  4  0
 30 31  4  0
 31 32  4  0
 32 33  4  0
 33 34  2  0
 23 13  4  0
 25  8  4  0
 32 27  4  0
 33  6  4  0
M  END
>  <SMILES>  (30) 
CCOC(=O)c4c(c2ccc(Cc1ccc(OC(F)(F)F)cc1)cc2)[nH]c3ccccc3c4=O

>  <NumConformers>  (30) 
48

>  <EnergyUnits>  (30) 
RDKit_forcefield

>  <Processing_Time>  (30) 
83.7s

>  <Original_Conformers>  (30) 
500

>  <Total_Conformers>  (30) 
48

>  <Energy>  (30) 
69.432974149195047

>  <Energy_Unit>  (30) 
RDKit_forcefield

>  <Rank>  (30) 
30

>  <Conformer_Index>  (30) 
29

$$$$
GN-171
     RDKit          3D

 34 37  0  0  0  0  0  0  0  0999 V2000
   -0.1084   -3.8442    1.1941 C   0  0  0  0  0  0  0  0  0  0  0  0
   -1.0670   -4.0420    0.0247 C   0  0  0  0  0  0  0  0  0  0  0  0
   -2.0478   -3.0068   -0.0008 O   0  0  0  0  0  0  0  0  0  0  0  0
   -1.7713   -1.6975   -0.4121 C   0  0  0  0  0  0  0  0  0  0  0  0
   -0.6423   -1.4087   -0.8967 O   0  0  0  0  0  0  0  0  0  0  0  0
   -2.8138   -0.6494   -0.2860 C   0  0  0  0  0  0  0  0  0  0  0  0
   -2.4877    0.6746    0.1035 C   0  0  0  0  0  0  0  0  0  0  0  0
   -1.1217    1.0417    0.5474 C   0  0  0  0  0  0  0  0  0  0  0  0
   -0.4393    2.0973   -0.0754 C   0  0  0  0  0  0  0  0  0  0  0  0
    0.8506    2.4438    0.3371 C   0  0  0  0  0  0  0  0  0  0  0  0
    1.4674    1.7523    1.3919 C   0  0  0  0  0  0  0  0  0  0  0  0
    2.8768    2.0862    1.7975 C   0  0  0  0  0  0  0  0  0  0  0  0
    3.8509    1.2540    1.0087 C   0  0  0  0  0  0  0  0  0  0  0  0
    4.3306    1.7089   -0.2293 C   0  0  0  0  0  0  0  0  0  0  0  0
    5.1988    0.9160   -0.9857 C   0  0  0  0  0  0  0  0  0  0  0  0
    5.5944   -0.3518   -0.5161 C   0  0  0  0  0  0  0  0  0  0  0  0
    6.4602   -1.1921   -1.2347 O   0  0  0  0  0  0  0  0  0  0  0  0
    7.0307   -0.8928   -2.5070 C   0  0  0  0  0  0  0  0  0  0  0  0
    7.8213    0.2389   -2.4205 F   0  0  0  0  0  0  0  0  0  0  0  0
    6.0318   -0.7006   -3.4449 F   0  0  0  0  0  0  0  0  0  0  0  0
    7.8175   -1.9556   -2.9061 F   0  0  0  0  0  0  0  0  0  0  0  0
    5.1067   -0.8041    0.7157 C   0  0  0  0  0  0  0  0  0  0  0  0
    4.2381   -0.0124    1.4719 C   0  0  0  0  0  0  0  0  0  0  0  0
    0.7807    0.7021    2.0211 C   0  0  0  0  0  0  0  0  0  0  0  0
   -0.5082    0.3557    1.6086 C   0  0  0  0  0  0  0  0  0  0  0  0
   -3.4569    1.6352    0.1227 N   0  0  0  0  0  0  0  0  0  0  0  0
   -4.7547    1.3619   -0.1876 C   0  0  0  0  0  0  0  0  0  0  0  0
   -5.7219    2.3799   -0.1423 C   0  0  0  0  0  0  0  0  0  0  0  0
   -7.0545    2.1006   -0.4521 C   0  0  0  0  0  0  0  0  0  0  0  0
   -7.4347    0.8054   -0.8076 C   0  0  0  0  0  0  0  0  0  0  0  0
   -6.4840   -0.2175   -0.8566 C   0  0  0  0  0  0  0  0  0  0  0  0
   -5.1355    0.0497   -0.5474 C   0  0  0  0  0  0  0  0  0  0  0  0
   -4.1534   -0.9550   -0.5983 C   0  0  0  0  0  0  0  0  0  0  0  0
   -4.4694   -2.1277   -0.9445 O   0  0  0  0  0  0  0  0  0  0  0  0
  1  2  1  0
  2  3  1  0
  3  4  1  0
  4  5  2  0
  4  6  1  0
  6  7  4  0
  7  8  1  0
  8  9  4  0
  9 10  4  0
 10 11  4  0
 11 12  1  0
 12 13  1  0
 13 14  4  0
 14 15  4  0
 15 16  4  0
 16 17  1  0
 17 18  1  0
 18 19  1  0
 18 20  1  0
 18 21  1  0
 16 22  4  0
 22 23  4  0
 11 24  4  0
 24 25  4  0
  7 26  4  0
 26 27  4  0
 27 28  4  0
 28 29  4  0
 29 30  4  0
 30 31  4  0
 31 32  4  0
 32 33  4  0
 33 34  2  0
 23 13  4  0
 25  8  4  0
 32 27  4  0
 33  6  4  0
M  END
>  <SMILES>  (31) 
CCOC(=O)c4c(c2ccc(Cc1ccc(OC(F)(F)F)cc1)cc2)[nH]c3ccccc3c4=O

>  <NumConformers>  (31) 
48

>  <EnergyUnits>  (31) 
RDKit_forcefield

>  <Processing_Time>  (31) 
83.7s

>  <Original_Conformers>  (31) 
500

>  <Total_Conformers>  (31) 
48

>  <Energy>  (31) 
69.45055168039741

>  <Energy_Unit>  (31) 
RDKit_forcefield

>  <Rank>  (31) 
31

>  <Conformer_Index>  (31) 
30

$$$$
GN-171
     RDKit          3D

 34 37  0  0  0  0  0  0  0  0999 V2000
   -2.5930   -5.2345    1.2082 C   0  0  0  0  0  0  0  0  0  0  0  0
   -1.5406   -4.1611    1.4592 C   0  0  0  0  0  0  0  0  0  0  0  0
   -1.9392   -2.9209    0.8803 O   0  0  0  0  0  0  0  0  0  0  0  0
   -2.9012   -2.0748    1.4465 C   0  0  0  0  0  0  0  0  0  0  0  0
   -3.4731   -2.3972    2.5243 O   0  0  0  0  0  0  0  0  0  0  0  0
   -3.2524   -0.7981    0.7712 C   0  0  0  0  0  0  0  0  0  0  0  0
   -2.2793   -0.0457    0.0642 C   0  0  0  0  0  0  0  0  0  0  0  0
   -0.8438   -0.4142    0.0780 C   0  0  0  0  0  0  0  0  0  0  0  0
   -0.1450   -0.5200    1.2915 C   0  0  0  0  0  0  0  0  0  0  0  0
    1.2100   -0.8611    1.2976 C   0  0  0  0  0  0  0  0  0  0  0  0
    1.8864   -1.0975    0.0904 C   0  0  0  0  0  0  0  0  0  0  0  0
    3.3547   -1.4250    0.0949 C   0  0  0  0  0  0  0  0  0  0  0  0
    4.1687   -0.1612    0.0314 C   0  0  0  0  0  0  0  0  0  0  0  0
    4.5197    0.3939   -1.2086 C   0  0  0  0  0  0  0  0  0  0  0  0
    5.2433    1.5887   -1.2694 C   0  0  0  0  0  0  0  0  0  0  0  0
    5.6196    2.2524   -0.0852 C   0  0  0  0  0  0  0  0  0  0  0  0
    6.3457    3.4545   -0.0861 O   0  0  0  0  0  0  0  0  0  0  0  0
    6.7928    4.1459   -1.2505 C   0  0  0  0  0  0  0  0  0  0  0  0
    5.7111    4.5185   -2.0284 F   0  0  0  0  0  0  0  0  0  0  0  0
    7.4747    5.2828   -0.8625 F   0  0  0  0  0  0  0  0  0  0  0  0
    7.6472    3.3420   -1.9837 F   0  0  0  0  0  0  0  0  0  0  0  0
    5.2573    1.7004    1.1492 C   0  0  0  0  0  0  0  0  0  0  0  0
    4.5336    0.5063    1.2103 C   0  0  0  0  0  0  0  0  0  0  0  0
    1.1946   -0.9630   -1.1237 C   0  0  0  0  0  0  0  0  0  0  0  0
   -0.1610   -0.6229   -1.1296 C   0  0  0  0  0  0  0  0  0  0  0  0
   -2.6512    1.0757   -0.6189 N   0  0  0  0  0  0  0  0  0  0  0  0
   -3.9351    1.5298   -0.6256 C   0  0  0  0  0  0  0  0  0  0  0  0
   -4.2685    2.6974   -1.3324 C   0  0  0  0  0  0  0  0  0  0  0  0
   -5.5830    3.1688   -1.3348 C   0  0  0  0  0  0  0  0  0  0  0  0
   -6.5749    2.4816   -0.6336 C   0  0  0  0  0  0  0  0  0  0  0  0
   -6.2581    1.3190    0.0737 C   0  0  0  0  0  0  0  0  0  0  0  0
   -4.9358    0.8320    0.0858 C   0  0  0  0  0  0  0  0  0  0  0  0
   -4.5869   -0.3393    0.7807 C   0  0  0  0  0  0  0  0  0  0  0  0
   -5.4756   -0.9916    1.3969 O   0  0  0  0  0  0  0  0  0  0  0  0
  1  2  1  0
  2  3  1  0
  3  4  1  0
  4  5  2  0
  4  6  1  0
  6  7  4  0
  7  8  1  0
  8  9  4  0
  9 10  4  0
 10 11  4  0
 11 12  1  0
 12 13  1  0
 13 14  4  0
 14 15  4  0
 15 16  4  0
 16 17  1  0
 17 18  1  0
 18 19  1  0
 18 20  1  0
 18 21  1  0
 16 22  4  0
 22 23  4  0
 11 24  4  0
 24 25  4  0
  7 26  4  0
 26 27  4  0
 27 28  4  0
 28 29  4  0
 29 30  4  0
 30 31  4  0
 31 32  4  0
 32 33  4  0
 33 34  2  0
 23 13  4  0
 25  8  4  0
 32 27  4  0
 33  6  4  0
M  END
>  <SMILES>  (32) 
CCOC(=O)c4c(c2ccc(Cc1ccc(OC(F)(F)F)cc1)cc2)[nH]c3ccccc3c4=O

>  <NumConformers>  (32) 
48

>  <EnergyUnits>  (32) 
RDKit_forcefield

>  <Processing_Time>  (32) 
83.7s

>  <Original_Conformers>  (32) 
500

>  <Total_Conformers>  (32) 
48

>  <Energy>  (32) 
69.48042743636492

>  <Energy_Unit>  (32) 
RDKit_forcefield

>  <Rank>  (32) 
32

>  <Conformer_Index>  (32) 
31

$$$$
GN-171
     RDKit          3D

 34 37  0  0  0  0  0  0  0  0999 V2000
   -0.0818   -2.5096    3.1142 C   0  0  0  0  0  0  0  0  0  0  0  0
   -1.0635   -1.5193    3.7309 C   0  0  0  0  0  0  0  0  0  0  0  0
   -2.0429   -1.1230    2.7733 O   0  0  0  0  0  0  0  0  0  0  0  0
   -1.7769   -0.2307    1.7275 C   0  0  0  0  0  0  0  0  0  0  0  0
   -0.6613    0.3554    1.6610 O   0  0  0  0  0  0  0  0  0  0  0  0
   -2.8160    0.0334    0.7016 C   0  0  0  0  0  0  0  0  0  0  0  0
   -2.4794    0.2049   -0.6655 C   0  0  0  0  0  0  0  0  0  0  0  0
   -1.0984   -0.0068   -1.1600 C   0  0  0  0  0  0  0  0  0  0  0  0
   -0.4375    1.0141   -1.8584 C   0  0  0  0  0  0  0  0  0  0  0  0
    0.8680    0.8221   -2.3192 C   0  0  0  0  0  0  0  0  0  0  0  0
    1.5219   -0.4019   -2.1068 C   0  0  0  0  0  0  0  0  0  0  0  0
    2.9461   -0.5911   -2.5533 C   0  0  0  0  0  0  0  0  0  0  0  0
    3.8884   -0.2664   -1.4264 C   0  0  0  0  0  0  0  0  0  0  0  0
    4.3171   -1.2733   -0.5486 C   0  0  0  0  0  0  0  0  0  0  0  0
    5.1559   -0.9627    0.5250 C   0  0  0  0  0  0  0  0  0  0  0  0
    5.5709    0.3556    0.7473 C   0  0  0  0  0  0  0  0  0  0  0  0
    6.4096    0.6095    1.8443 O   0  0  0  0  0  0  0  0  0  0  0  0
    6.9042    1.8920    2.2240 C   0  0  0  0  0  0  0  0  0  0  0  0
    7.6764    2.4255    1.2080 F   0  0  0  0  0  0  0  0  0  0  0  0
    7.6873    1.7534    3.3529 F   0  0  0  0  0  0  0  0  0  0  0  0
    5.8517    2.7422    2.5133 F   0  0  0  0  0  0  0  0  0  0  0  0
    5.1312    1.3689   -0.1268 C   0  0  0  0  0  0  0  0  0  0  0  0
    4.2931    1.0580   -1.2017 C   0  0  0  0  0  0  0  0  0  0  0  0
    0.8561   -1.4272   -1.4172 C   0  0  0  0  0  0  0  0  0  0  0  0
   -0.4475   -1.2342   -0.9539 C   0  0  0  0  0  0  0  0  0  0  0  0
   -3.4495    0.5284   -1.5688 N   0  0  0  0  0  0  0  0  0  0  0  0
   -4.7574    0.6606   -1.2119 C   0  0  0  0  0  0  0  0  0  0  0  0
   -5.7255    0.9784   -2.1791 C   0  0  0  0  0  0  0  0  0  0  0  0
   -7.0686    1.1046   -1.8174 C   0  0  0  0  0  0  0  0  0  0  0  0
   -7.4576    0.9158   -0.4904 C   0  0  0  0  0  0  0  0  0  0  0  0
   -6.5057    0.6002    0.4826 C   0  0  0  0  0  0  0  0  0  0  0  0
   -5.1474    0.4680    0.1322 C   0  0  0  0  0  0  0  0  0  0  0  0
   -4.1651    0.1575    1.0891 C   0  0  0  0  0  0  0  0  0  0  0  0
   -4.4904    0.0097    2.3006 O   0  0  0  0  0  0  0  0  0  0  0  0
  1  2  1  0
  2  3  1  0
  3  4  1  0
  4  5  2  0
  4  6  1  0
  6  7  4  0
  7  8  1  0
  8  9  4  0
  9 10  4  0
 10 11  4  0
 11 12  1  0
 12 13  1  0
 13 14  4  0
 14 15  4  0
 15 16  4  0
 16 17  1  0
 17 18  1  0
 18 19  1  0
 18 20  1  0
 18 21  1  0
 16 22  4  0
 22 23  4  0
 11 24  4  0
 24 25  4  0
  7 26  4  0
 26 27  4  0
 27 28  4  0
 28 29  4  0
 29 30  4  0
 30 31  4  0
 31 32  4  0
 32 33  4  0
 33 34  2  0
 23 13  4  0
 25  8  4  0
 32 27  4  0
 33  6  4  0
M  END
>  <SMILES>  (33) 
CCOC(=O)c4c(c2ccc(Cc1ccc(OC(F)(F)F)cc1)cc2)[nH]c3ccccc3c4=O

>  <NumConformers>  (33) 
48

>  <EnergyUnits>  (33) 
RDKit_forcefield

>  <Processing_Time>  (33) 
83.7s

>  <Original_Conformers>  (33) 
500

>  <Total_Conformers>  (33) 
48

>  <Energy>  (33) 
69.482326394230967

>  <Energy_Unit>  (33) 
RDKit_forcefield

>  <Rank>  (33) 
33

>  <Conformer_Index>  (33) 
32

$$$$
GN-171
     RDKit          3D

 34 37  0  0  0  0  0  0  0  0999 V2000
   -2.6432   -2.6998    4.6141 C   0  0  0  0  0  0  0  0  0  0  0  0
   -1.5428   -2.5570    3.5697 C   0  0  0  0  0  0  0  0  0  0  0  0
   -1.9479   -1.6672    2.5323 O   0  0  0  0  0  0  0  0  0  0  0  0
   -2.8332   -2.0238    1.5072 C   0  0  0  0  0  0  0  0  0  0  0  0
   -3.3168   -3.1887    1.4647 O   0  0  0  0  0  0  0  0  0  0  0  0
   -3.2088   -1.0241    0.4730 C   0  0  0  0  0  0  0  0  0  0  0  0
   -2.2853   -0.0456    0.0227 C   0  0  0  0  0  0  0  0  0  0  0  0
   -0.8665   -0.0532    0.4509 C   0  0  0  0  0  0  0  0  0  0  0  0
   -0.0582   -1.1791    0.2247 C   0  0  0  0  0  0  0  0  0  0  0  0
    1.2802   -1.1784    0.6263 C   0  0  0  0  0  0  0  0  0  0  0  0
    1.8301   -0.0510    1.2564 C   0  0  0  0  0  0  0  0  0  0  0  0
    3.2811   -0.0356    1.6534 C   0  0  0  0  0  0  0  0  0  0  0  0
    4.1226    0.4944    0.5245 C   0  0  0  0  0  0  0  0  0  0  0  0
    4.6032   -0.3728   -0.4682 C   0  0  0  0  0  0  0  0  0  0  0  0
    5.3531    0.1236   -1.5386 C   0  0  0  0  0  0  0  0  0  0  0  0
    5.6269    1.5019   -1.6356 C   0  0  0  0  0  0  0  0  0  0  0  0
    6.3743    2.0557   -2.6877 O   0  0  0  0  0  0  0  0  0  0  0  0
    6.9377    1.3220   -3.7730 C   0  0  0  0  0  0  0  0  0  0  0  0
    5.9386    0.6882   -4.4898 F   0  0  0  0  0  0  0  0  0  0  0  0
    7.8427    0.3890   -3.2992 F   0  0  0  0  0  0  0  0  0  0  0  0
    7.5997    2.1985   -4.6110 F   0  0  0  0  0  0  0  0  0  0  0  0
    5.1354    2.3647   -0.6487 C   0  0  0  0  0  0  0  0  0  0  0  0
    4.3847    1.8690    0.4208 C   0  0  0  0  0  0  0  0  0  0  0  0
    1.0297    1.0851    1.4551 C   0  0  0  0  0  0  0  0  0  0  0  0
   -0.3092    1.0839    1.0543 C   0  0  0  0  0  0  0  0  0  0  0  0
   -2.6871    0.9128   -0.8618 N   0  0  0  0  0  0  0  0  0  0  0  0
   -3.9522    0.9528   -1.3645 C   0  0  0  0  0  0  0  0  0  0  0  0
   -4.3166    1.9510   -2.2836 C   0  0  0  0  0  0  0  0  0  0  0  0
   -5.6113    1.9900   -2.8057 C   0  0  0  0  0  0  0  0  0  0  0  0
   -6.5522    1.0352   -2.4170 C   0  0  0  0  0  0  0  0  0  0  0  0
   -6.2040    0.0366   -1.5039 C   0  0  0  0  0  0  0  0  0  0  0  0
   -4.9012   -0.0155   -0.9693 C   0  0  0  0  0  0  0  0  0  0  0  0
   -4.5227   -1.0022   -0.0421 C   0  0  0  0  0  0  0  0  0  0  0  0
   -5.3682   -1.8571    0.3446 O   0  0  0  0  0  0  0  0  0  0  0  0
  1  2  1  0
  2  3  1  0
  3  4  1  0
  4  5  2  0
  4  6  1  0
  6  7  4  0
  7  8  1  0
  8  9  4  0
  9 10  4  0
 10 11  4  0
 11 12  1  0
 12 13  1  0
 13 14  4  0
 14 15  4  0
 15 16  4  0
 16 17  1  0
 17 18  1  0
 18 19  1  0
 18 20  1  0
 18 21  1  0
 16 22  4  0
 22 23  4  0
 11 24  4  0
 24 25  4  0
  7 26  4  0
 26 27  4  0
 27 28  4  0
 28 29  4  0
 29 30  4  0
 30 31  4  0
 31 32  4  0
 32 33  4  0
 33 34  2  0
 23 13  4  0
 25  8  4  0
 32 27  4  0
 33  6  4  0
M  END
>  <SMILES>  (34) 
CCOC(=O)c4c(c2ccc(Cc1ccc(OC(F)(F)F)cc1)cc2)[nH]c3ccccc3c4=O

>  <NumConformers>  (34) 
48

>  <EnergyUnits>  (34) 
RDKit_forcefield

>  <Processing_Time>  (34) 
83.7s

>  <Original_Conformers>  (34) 
500

>  <Total_Conformers>  (34) 
48

>  <Energy>  (34) 
69.483973602719772

>  <Energy_Unit>  (34) 
RDKit_forcefield

>  <Rank>  (34) 
34

>  <Conformer_Index>  (34) 
33

$$$$
GN-171
     RDKit          3D

 34 37  0  0  0  0  0  0  0  0999 V2000
   -2.6242   -2.5189    4.7216 C   0  0  0  0  0  0  0  0  0  0  0  0
   -1.5532   -1.6981    4.0122 C   0  0  0  0  0  0  0  0  0  0  0  0
   -1.9631   -1.3727    2.6863 O   0  0  0  0  0  0  0  0  0  0  0  0
   -2.8969   -0.3721    2.3873 C   0  0  0  0  0  0  0  0  0  0  0  0
   -3.4422    0.2844    3.3166 O   0  0  0  0  0  0  0  0  0  0  0  0
   -3.2497   -0.0896    0.9716 C   0  0  0  0  0  0  0  0  0  0  0  0
   -2.2853   -0.1921   -0.0639 C   0  0  0  0  0  0  0  0  0  0  0  0
   -0.8533   -0.4488    0.2218 C   0  0  0  0  0  0  0  0  0  0  0  0
   -0.1974   -1.5261   -0.3925 C   0  0  0  0  0  0  0  0  0  0  0  0
    1.1554   -1.7669   -0.1375 C   0  0  0  0  0  0  0  0  0  0  0  0
    1.8714   -0.9332    0.7360 C   0  0  0  0  0  0  0  0  0  0  0  0
    3.3377   -1.1668    0.9778 C   0  0  0  0  0  0  0  0  0  0  0  0
    4.1585   -0.3473    0.0194 C   0  0  0  0  0  0  0  0  0  0  0  0
    4.4299   -0.8287   -1.2702 C   0  0  0  0  0  0  0  0  0  0  0  0
    5.1551   -0.0493   -2.1755 C   0  0  0  0  0  0  0  0  0  0  0  0
    5.6144    1.2225   -1.8132 C   0  0  0  0  0  0  0  0  0  0  0  0
    6.3364    1.9617   -2.7640 O   0  0  0  0  0  0  0  0  0  0  0  0
    6.8759    3.2654   -2.5577 C   0  0  0  0  0  0  0  0  0  0  0  0
    7.7888    3.2448   -1.5186 F   0  0  0  0  0  0  0  0  0  0  0  0
    5.8613    4.1627   -2.2763 F   0  0  0  0  0  0  0  0  0  0  0  0
    7.5213    3.6706   -3.7097 F   0  0  0  0  0  0  0  0  0  0  0  0
    5.3344    1.7098   -0.5217 C   0  0  0  0  0  0  0  0  0  0  0  0
    4.6075    0.9312    0.3837 C   0  0  0  0  0  0  0  0  0  0  0  0
    1.2221    0.1600    1.3303 C   0  0  0  0  0  0  0  0  0  0  0  0
   -0.1297    0.4027    1.0727 C   0  0  0  0  0  0  0  0  0  0  0  0
   -2.6618   -0.0118   -1.3634 N   0  0  0  0  0  0  0  0  0  0  0  0
   -3.9411    0.2974   -1.7131 C   0  0  0  0  0  0  0  0  0  0  0  0
   -4.2790    0.4858   -3.0637 C   0  0  0  0  0  0  0  0  0  0  0  0
   -5.5886    0.8095   -3.4243 C   0  0  0  0  0  0  0  0  0  0  0  0
   -6.5713    0.9485   -2.4430 C   0  0  0  0  0  0  0  0  0  0  0  0
   -6.2499    0.7639   -1.0958 C   0  0  0  0  0  0  0  0  0  0  0  0
   -4.9324    0.4376   -0.7171 C   0  0  0  0  0  0  0  0  0  0  0  0
   -4.5793    0.2367    0.6288 C   0  0  0  0  0  0  0  0  0  0  0  0
   -5.4604    0.3282    1.5290 O   0  0  0  0  0  0  0  0  0  0  0  0
  1  2  1  0
  2  3  1  0
  3  4  1  0
  4  5  2  0
  4  6  1  0
  6  7  4  0
  7  8  1  0
  8  9  4  0
  9 10  4  0
 10 11  4  0
 11 12  1  0
 12 13  1  0
 13 14  4  0
 14 15  4  0
 15 16  4  0
 16 17  1  0
 17 18  1  0
 18 19  1  0
 18 20  1  0
 18 21  1  0
 16 22  4  0
 22 23  4  0
 11 24  4  0
 24 25  4  0
  7 26  4  0
 26 27  4  0
 27 28  4  0
 28 29  4  0
 29 30  4  0
 30 31  4  0
 31 32  4  0
 32 33  4  0
 33 34  2  0
 23 13  4  0
 25  8  4  0
 32 27  4  0
 33  6  4  0
M  END
>  <SMILES>  (35) 
CCOC(=O)c4c(c2ccc(Cc1ccc(OC(F)(F)F)cc1)cc2)[nH]c3ccccc3c4=O

>  <NumConformers>  (35) 
48

>  <EnergyUnits>  (35) 
RDKit_forcefield

>  <Processing_Time>  (35) 
83.7s

>  <Original_Conformers>  (35) 
500

>  <Total_Conformers>  (35) 
48

>  <Energy>  (35) 
69.515365806930518

>  <Energy_Unit>  (35) 
RDKit_forcefield

>  <Rank>  (35) 
35

>  <Conformer_Index>  (35) 
34

$$$$
GN-171
     RDKit          3D

 34 37  0  0  0  0  0  0  0  0999 V2000
    0.1979   -1.1483    3.4747 C   0  0  0  0  0  0  0  0  0  0  0  0
   -0.9672   -0.2348    3.8426 C   0  0  0  0  0  0  0  0  0  0  0  0
   -1.9730   -0.2721    2.8326 O   0  0  0  0  0  0  0  0  0  0  0  0
   -1.8282    0.3372    1.5807 C   0  0  0  0  0  0  0  0  0  0  0  0
   -0.8225    1.0585    1.3362 O   0  0  0  0  0  0  0  0  0  0  0  0
   -2.8666    0.1405    0.5410 C   0  0  0  0  0  0  0  0  0  0  0  0
   -2.5190   -0.0588   -0.8181 C   0  0  0  0  0  0  0  0  0  0  0  0
   -1.1094   -0.2311   -1.2398 C   0  0  0  0  0  0  0  0  0  0  0  0
   -0.5552    0.6169   -2.2091 C   0  0  0  0  0  0  0  0  0  0  0  0
    0.7786    0.4641   -2.5994 C   0  0  0  0  0  0  0  0  0  0  0  0
    1.5681   -0.5542   -2.0419 C   0  0  0  0  0  0  0  0  0  0  0  0
    3.0168   -0.6933   -2.4238 C   0  0  0  0  0  0  0  0  0  0  0  0
    3.8929   -0.0619   -1.3759 C   0  0  0  0  0  0  0  0  0  0  0  0
    4.1174    1.3225   -1.3830 C   0  0  0  0  0  0  0  0  0  0  0  0
    4.8973    1.9150   -0.3861 C   0  0  0  0  0  0  0  0  0  0  0  0
    5.4592    1.1403    0.6352 C   0  0  0  0  0  0  0  0  0  0  0  0
    6.2358    1.7891    1.6089 O   0  0  0  0  0  0  0  0  0  0  0  0
    6.8872    1.1497    2.7042 C   0  0  0  0  0  0  0  0  0  0  0  0
    7.8023    0.2229    2.2389 F   0  0  0  0  0  0  0  0  0  0  0  0
    7.5571    2.1030    3.4467 F   0  0  0  0  0  0  0  0  0  0  0  0
    5.9572    0.5256    3.5158 F   0  0  0  0  0  0  0  0  0  0  0  0
    5.2259   -0.2486    0.6482 C   0  0  0  0  0  0  0  0  0  0  0  0
    4.4442   -0.8413   -0.3477 C   0  0  0  0  0  0  0  0  0  0  0  0
    1.0083   -1.4107   -1.0815 C   0  0  0  0  0  0  0  0  0  0  0  0
   -0.3222   -1.2538   -0.6871 C   0  0  0  0  0  0  0  0  0  0  0  0
   -3.4980   -0.1493   -1.7643 N   0  0  0  0  0  0  0  0  0  0  0  0
   -4.8211   -0.0919   -1.4454 C   0  0  0  0  0  0  0  0  0  0  0  0
   -5.7966   -0.2063   -2.4501 C   0  0  0  0  0  0  0  0  0  0  0  0
   -7.1537   -0.1585   -2.1241 C   0  0  0  0  0  0  0  0  0  0  0  0
   -7.5497    0.0039   -0.7956 C   0  0  0  0  0  0  0  0  0  0  0  0
   -6.5908    0.1196    0.2145 C   0  0  0  0  0  0  0  0  0  0  0  0
   -5.2181    0.0717   -0.0992 C   0  0  0  0  0  0  0  0  0  0  0  0
   -4.2291    0.1921    0.8934 C   0  0  0  0  0  0  0  0  0  0  0  0
   -4.5629    0.3666    2.0987 O   0  0  0  0  0  0  0  0  0  0  0  0
  1  2  1  0
  2  3  1  0
  3  4  1  0
  4  5  2  0
  4  6  1  0
  6  7  4  0
  7  8  1  0
  8  9  4  0
  9 10  4  0
 10 11  4  0
 11 12  1  0
 12 13  1  0
 13 14  4  0
 14 15  4  0
 15 16  4  0
 16 17  1  0
 17 18  1  0
 18 19  1  0
 18 20  1  0
 18 21  1  0
 16 22  4  0
 22 23  4  0
 11 24  4  0
 24 25  4  0
  7 26  4  0
 26 27  4  0
 27 28  4  0
 28 29  4  0
 29 30  4  0
 30 31  4  0
 31 32  4  0
 32 33  4  0
 33 34  2  0
 23 13  4  0
 25  8  4  0
 32 27  4  0
 33  6  4  0
M  END
>  <SMILES>  (36) 
CCOC(=O)c4c(c2ccc(Cc1ccc(OC(F)(F)F)cc1)cc2)[nH]c3ccccc3c4=O

>  <NumConformers>  (36) 
48

>  <EnergyUnits>  (36) 
RDKit_forcefield

>  <Processing_Time>  (36) 
83.7s

>  <Original_Conformers>  (36) 
500

>  <Total_Conformers>  (36) 
48

>  <Energy>  (36) 
69.560483651705468

>  <Energy_Unit>  (36) 
RDKit_forcefield

>  <Rank>  (36) 
36

>  <Conformer_Index>  (36) 
35

$$$$
GN-171
     RDKit          3D

 34 37  0  0  0  0  0  0  0  0999 V2000
   -1.6567   -3.5588    3.7154 C   0  0  0  0  0  0  0  0  0  0  0  0
   -3.0128   -3.7936    3.0590 C   0  0  0  0  0  0  0  0  0  0  0  0
   -3.4009   -2.6573    2.2898 O   0  0  0  0  0  0  0  0  0  0  0  0
   -2.8279   -2.3330    1.0542 C   0  0  0  0  0  0  0  0  0  0  0  0
   -2.0065   -3.1204    0.5085 O   0  0  0  0  0  0  0  0  0  0  0  0
   -3.2002   -1.0648    0.3804 C   0  0  0  0  0  0  0  0  0  0  0  0
   -2.2422   -0.2893   -0.3215 C   0  0  0  0  0  0  0  0  0  0  0  0
   -0.7983   -0.6279   -0.3043 C   0  0  0  0  0  0  0  0  0  0  0  0
   -0.0971   -0.7769   -1.5104 C   0  0  0  0  0  0  0  0  0  0  0  0
    1.2672   -1.0807   -1.5007 C   0  0  0  0  0  0  0  0  0  0  0  0
    1.9496   -1.2391   -0.2842 C   0  0  0  0  0  0  0  0  0  0  0  0
    3.4260   -1.5277   -0.2742 C   0  0  0  0  0  0  0  0  0  0  0  0
    4.2067   -0.2415   -0.2808 C   0  0  0  0  0  0  0  0  0  0  0  0
    4.5406    0.3904    0.9264 C   0  0  0  0  0  0  0  0  0  0  0  0
    5.2334    1.6042    0.9186 C   0  0  0  0  0  0  0  0  0  0  0  0
    5.5959    2.2107   -0.2899 C   0  0  0  0  0  0  0  0  0  0  0  0
    6.2913    3.4296   -0.2371 O   0  0  0  0  0  0  0  0  0  0  0  0
    6.7343    4.1751   -1.3691 C   0  0  0  0  0  0  0  0  0  0  0  0
    5.6531    4.5484   -2.1473 F   0  0  0  0  0  0  0  0  0  0  0  0
    7.6184    3.4213   -2.1202 F   0  0  0  0  0  0  0  0  0  0  0  0
    7.3814    5.3139   -0.9304 F   0  0  0  0  0  0  0  0  0  0  0  0
    5.2505    1.5824   -1.5023 C   0  0  0  0  0  0  0  0  0  0  0  0
    4.5572    0.3683   -1.4950 C   0  0  0  0  0  0  0  0  0  0  0  0
    1.2545   -1.0634    0.9224 C   0  0  0  0  0  0  0  0  0  0  0  0
   -0.1089   -0.7580    0.9128 C   0  0  0  0  0  0  0  0  0  0  0  0
   -2.6378    0.8286   -0.9974 N   0  0  0  0  0  0  0  0  0  0  0  0
   -3.9311    1.2561   -0.9994 C   0  0  0  0  0  0  0  0  0  0  0  0
   -4.2901    2.4206   -1.6988 C   0  0  0  0  0  0  0  0  0  0  0  0
   -5.6140    2.8650   -1.6957 C   0  0  0  0  0  0  0  0  0  0  0  0
   -6.5901    2.1541   -0.9958 C   0  0  0  0  0  0  0  0  0  0  0  0
   -6.2479    0.9945   -0.2953 C   0  0  0  0  0  0  0  0  0  0  0  0
   -4.9161    0.5344   -0.2892 C   0  0  0  0  0  0  0  0  0  0  0  0
   -4.5417   -0.6330    0.3988 C   0  0  0  0  0  0  0  0  0  0  0  0
   -5.4135   -1.3061    1.0168 O   0  0  0  0  0  0  0  0  0  0  0  0
  1  2  1  0
  2  3  1  0
  3  4  1  0
  4  5  2  0
  4  6  1  0
  6  7  4  0
  7  8  1  0
  8  9  4  0
  9 10  4  0
 10 11  4  0
 11 12  1  0
 12 13  1  0
 13 14  4  0
 14 15  4  0
 15 16  4  0
 16 17  1  0
 17 18  1  0
 18 19  1  0
 18 20  1  0
 18 21  1  0
 16 22  4  0
 22 23  4  0
 11 24  4  0
 24 25  4  0
  7 26  4  0
 26 27  4  0
 27 28  4  0
 28 29  4  0
 29 30  4  0
 30 31  4  0
 31 32  4  0
 32 33  4  0
 33 34  2  0
 23 13  4  0
 25  8  4  0
 32 27  4  0
 33  6  4  0
M  END
>  <SMILES>  (37) 
CCOC(=O)c4c(c2ccc(Cc1ccc(OC(F)(F)F)cc1)cc2)[nH]c3ccccc3c4=O

>  <NumConformers>  (37) 
48

>  <EnergyUnits>  (37) 
RDKit_forcefield

>  <Processing_Time>  (37) 
83.7s

>  <Original_Conformers>  (37) 
500

>  <Total_Conformers>  (37) 
48

>  <Energy>  (37) 
69.664778181594286

>  <Energy_Unit>  (37) 
RDKit_forcefield

>  <Rank>  (37) 
37

>  <Conformer_Index>  (37) 
36

$$$$
GN-171
     RDKit          3D

 34 37  0  0  0  0  0  0  0  0999 V2000
   -1.6539   -5.0365    0.9973 C   0  0  0  0  0  0  0  0  0  0  0  0
   -3.0177   -4.6206    1.5382 C   0  0  0  0  0  0  0  0  0  0  0  0
   -3.4035   -3.3548    1.0066 O   0  0  0  0  0  0  0  0  0  0  0  0
   -2.8358   -2.1428    1.4170 C   0  0  0  0  0  0  0  0  0  0  0  0
   -2.0220   -2.1167    2.3811 O   0  0  0  0  0  0  0  0  0  0  0  0
   -3.2044   -0.8846    0.7224 C   0  0  0  0  0  0  0  0  0  0  0  0
   -2.2469    0.1311    0.4707 C   0  0  0  0  0  0  0  0  0  0  0  0
   -0.8054   -0.0650    0.7587 C   0  0  0  0  0  0  0  0  0  0  0  0
   -0.1065   -1.1496    0.2032 C   0  0  0  0  0  0  0  0  0  0  0  0
    1.2557   -1.3194    0.4640 C   0  0  0  0  0  0  0  0  0  0  0  0
    1.9398   -0.4057    1.2809 C   0  0  0  0  0  0  0  0  0  0  0  0
    3.4153   -0.5652    1.5276 C   0  0  0  0  0  0  0  0  0  0  0  0
    4.2003    0.1701    0.4755 C   0  0  0  0  0  0  0  0  0  0  0  0
    4.5555    1.5141    0.6661 C   0  0  0  0  0  0  0  0  0  0  0  0
    5.2541    2.2084   -0.3261 C   0  0  0  0  0  0  0  0  0  0  0  0
    5.5999    1.5679   -1.5320 C   0  0  0  0  0  0  0  0  0  0  0  0
    6.3011    2.2153   -2.5622 O   0  0  0  0  0  0  0  0  0  0  0  0
    6.7572    3.5659   -2.5263 C   0  0  0  0  0  0  0  0  0  0  0  0
    7.6401    3.7434   -1.4762 F   0  0  0  0  0  0  0  0  0  0  0  0
    7.4104    3.8500   -3.7099 F   0  0  0  0  0  0  0  0  0  0  0  0
    5.6841    4.4286   -2.3913 F   0  0  0  0  0  0  0  0  0  0  0  0
    5.2325    0.2305   -1.7223 C   0  0  0  0  0  0  0  0  0  0  0  0
    4.5352   -0.4643   -0.7303 C   0  0  0  0  0  0  0  0  0  0  0  0
    1.2477    0.6933    1.8134 C   0  0  0  0  0  0  0  0  0  0  0  0
   -0.1152    0.8625    1.5535 C   0  0  0  0  0  0  0  0  0  0  0  0
   -2.6401    1.3089   -0.0960 N   0  0  0  0  0  0  0  0  0  0  0  0
   -3.9300    1.5409   -0.4673 C   0  0  0  0  0  0  0  0  0  0  0  0
   -4.2862    2.7638   -1.0601 C   0  0  0  0  0  0  0  0  0  0  0  0
   -5.6063    3.0004   -1.4496 C   0  0  0  0  0  0  0  0  0  0  0  0
   -6.5811    2.0211   -1.2525 C   0  0  0  0  0  0  0  0  0  0  0  0
   -6.2417    0.8002   -0.6640 C   0  0  0  0  0  0  0  0  0  0  0  0
   -4.9138    0.5473   -0.2664 C   0  0  0  0  0  0  0  0  0  0  0  0
   -4.5423   -0.6674    0.3358 C   0  0  0  0  0  0  0  0  0  0  0  0
   -5.4136   -1.5565    0.5488 O   0  0  0  0  0  0  0  0  0  0  0  0
  1  2  1  0
  2  3  1  0
  3  4  1  0
  4  5  2  0
  4  6  1  0
  6  7  4  0
  7  8  1  0
  8  9  4  0
  9 10  4  0
 10 11  4  0
 11 12  1  0
 12 13  1  0
 13 14  4  0
 14 15  4  0
 15 16  4  0
 16 17  1  0
 17 18  1  0
 18 19  1  0
 18 20  1  0
 18 21  1  0
 16 22  4  0
 22 23  4  0
 11 24  4  0
 24 25  4  0
  7 26  4  0
 26 27  4  0
 27 28  4  0
 28 29  4  0
 29 30  4  0
 30 31  4  0
 31 32  4  0
 32 33  4  0
 33 34  2  0
 23 13  4  0
 25  8  4  0
 32 27  4  0
 33  6  4  0
M  END
>  <SMILES>  (38) 
CCOC(=O)c4c(c2ccc(Cc1ccc(OC(F)(F)F)cc1)cc2)[nH]c3ccccc3c4=O

>  <NumConformers>  (38) 
48

>  <EnergyUnits>  (38) 
RDKit_forcefield

>  <Processing_Time>  (38) 
83.7s

>  <Original_Conformers>  (38) 
500

>  <Total_Conformers>  (38) 
48

>  <Energy>  (38) 
69.668571641136751

>  <Energy_Unit>  (38) 
RDKit_forcefield

>  <Rank>  (38) 
38

>  <Conformer_Index>  (38) 
37

$$$$
GN-171
     RDKit          3D

 34 37  0  0  0  0  0  0  0  0999 V2000
   -1.3969   -3.0852    3.9815 C   0  0  0  0  0  0  0  0  0  0  0  0
   -2.7987   -3.3843    3.4613 C   0  0  0  0  0  0  0  0  0  0  0  0
   -3.2381   -2.3507    2.5827 O   0  0  0  0  0  0  0  0  0  0  0  0
   -2.7600   -2.1957    1.2762 C   0  0  0  0  0  0  0  0  0  0  0  0
   -1.9828   -3.0558    0.7778 O   0  0  0  0  0  0  0  0  0  0  0  0
   -3.1810   -1.0208    0.4735 C   0  0  0  0  0  0  0  0  0  0  0  0
   -2.2789   -0.3514   -0.3929 C   0  0  0  0  0  0  0  0  0  0  0  0
   -0.8381   -0.7006   -0.4445 C   0  0  0  0  0  0  0  0  0  0  0  0
   -0.2309   -0.9930   -1.6750 C   0  0  0  0  0  0  0  0  0  0  0  0
    1.1314   -1.2987   -1.7350 C   0  0  0  0  0  0  0  0  0  0  0  0
    1.9062   -1.3174   -0.5646 C   0  0  0  0  0  0  0  0  0  0  0  0
    3.3813   -1.6047   -0.6342 C   0  0  0  0  0  0  0  0  0  0  0  0
    4.1565   -0.3194   -0.7407 C   0  0  0  0  0  0  0  0  0  0  0  0
    4.3513    0.2879   -1.9908 C   0  0  0  0  0  0  0  0  0  0  0  0
    5.0406    1.5002   -2.0856 C   0  0  0  0  0  0  0  0  0  0  0  0
    5.5375    2.1302   -0.9373 C   0  0  0  0  0  0  0  0  0  0  0  0
    6.2203    3.3477   -1.0915 O   0  0  0  0  0  0  0  0  0  0  0  0
    6.7586    4.1301   -0.0284 C   0  0  0  0  0  0  0  0  0  0  0  0
    7.7213    3.4082    0.6550 F   0  0  0  0  0  0  0  0  0  0  0  0
    5.7512    4.5125    0.8400 F   0  0  0  0  0  0  0  0  0  0  0  0
    7.3440    5.2638   -0.5581 F   0  0  0  0  0  0  0  0  0  0  0  0
    5.3322    1.5260    0.3187 C   0  0  0  0  0  0  0  0  0  0  0  0
    4.6434    0.3131    0.4140 C   0  0  0  0  0  0  0  0  0  0  0  0
    1.3048   -1.0019    0.6636 C   0  0  0  0  0  0  0  0  0  0  0  0
   -0.0566   -0.6925    0.7233 C   0  0  0  0  0  0  0  0  0  0  0  0
   -2.7246    0.6751   -1.1747 N   0  0  0  0  0  0  0  0  0  0  0  0
   -4.0143    1.1113   -1.1349 C   0  0  0  0  0  0  0  0  0  0  0  0
   -4.4249    2.1805   -1.9494 C   0  0  0  0  0  0  0  0  0  0  0  0
   -5.7451    2.6343   -1.9053 C   0  0  0  0  0  0  0  0  0  0  0  0
   -6.6656    2.0269   -1.0498 C   0  0  0  0  0  0  0  0  0  0  0  0
   -6.2715    0.9632   -0.2333 C   0  0  0  0  0  0  0  0  0  0  0  0
   -4.9428    0.4955   -0.2667 C   0  0  0  0  0  0  0  0  0  0  0  0
   -4.5174   -0.5770    0.5365 C   0  0  0  0  0  0  0  0  0  0  0  0
   -5.3399   -1.1561    1.3001 O   0  0  0  0  0  0  0  0  0  0  0  0
  1  2  1  0
  2  3  1  0
  3  4  1  0
  4  5  2  0
  4  6  1  0
  6  7  4  0
  7  8  1  0
  8  9  4  0
  9 10  4  0
 10 11  4  0
 11 12  1  0
 12 13  1  0
 13 14  4  0
 14 15  4  0
 15 16  4  0
 16 17  1  0
 17 18  1  0
 18 19  1  0
 18 20  1  0
 18 21  1  0
 16 22  4  0
 22 23  4  0
 11 24  4  0
 24 25  4  0
  7 26  4  0
 26 27  4  0
 27 28  4  0
 28 29  4  0
 29 30  4  0
 30 31  4  0
 31 32  4  0
 32 33  4  0
 33 34  2  0
 23 13  4  0
 25  8  4  0
 32 27  4  0
 33  6  4  0
M  END
>  <SMILES>  (39) 
CCOC(=O)c4c(c2ccc(Cc1ccc(OC(F)(F)F)cc1)cc2)[nH]c3ccccc3c4=O

>  <NumConformers>  (39) 
48

>  <EnergyUnits>  (39) 
RDKit_forcefield

>  <Processing_Time>  (39) 
83.7s

>  <Original_Conformers>  (39) 
500

>  <Total_Conformers>  (39) 
48

>  <Energy>  (39) 
69.707240011490683

>  <Energy_Unit>  (39) 
RDKit_forcefield

>  <Rank>  (39) 
39

>  <Conformer_Index>  (39) 
38

$$$$
GN-171
     RDKit          3D

 34 37  0  0  0  0  0  0  0  0999 V2000
   -1.2371   -4.8954    0.7524 C   0  0  0  0  0  0  0  0  0  0  0  0
   -2.6865   -4.6702    1.1721 C   0  0  0  0  0  0  0  0  0  0  0  0
   -3.1551   -3.4067    0.7040 O   0  0  0  0  0  0  0  0  0  0  0  0
   -2.7581   -2.1855    1.2614 C   0  0  0  0  0  0  0  0  0  0  0  0
   -2.0416   -2.1625    2.3006 O   0  0  0  0  0  0  0  0  0  0  0  0
   -3.1890   -0.9151    0.6297 C   0  0  0  0  0  0  0  0  0  0  0  0
   -2.3070    0.1894    0.5090 C   0  0  0  0  0  0  0  0  0  0  0  0
   -0.8744    0.0903    0.8824 C   0  0  0  0  0  0  0  0  0  0  0  0
   -0.0582   -0.9126    0.3323 C   0  0  0  0  0  0  0  0  0  0  0  0
    1.2920   -0.9936    0.6812 C   0  0  0  0  0  0  0  0  0  0  0  0
    1.8494   -0.0677    1.5772 C   0  0  0  0  0  0  0  0  0  0  0  0
    3.3144   -0.1286    1.9144 C   0  0  0  0  0  0  0  0  0  0  0  0
    4.1175    0.5926    0.8659 C   0  0  0  0  0  0  0  0  0  0  0  0
    4.6134   -0.1014   -0.2481 C   0  0  0  0  0  0  0  0  0  0  0  0
    5.3198    0.5765   -1.2462 C   0  0  0  0  0  0  0  0  0  0  0  0
    5.5360    1.9650   -1.1465 C   0  0  0  0  0  0  0  0  0  0  0  0
    6.2386    2.6960   -2.1189 O   0  0  0  0  0  0  0  0  0  0  0  0
    6.7962    2.1536   -3.3122 C   0  0  0  0  0  0  0  0  0  0  0  0
    7.7409    1.1926   -3.0010 F   0  0  0  0  0  0  0  0  0  0  0  0
    5.7996    1.6007   -4.0950 F   0  0  0  0  0  0  0  0  0  0  0  0
    7.4091    3.1680   -4.0222 F   0  0  0  0  0  0  0  0  0  0  0  0
    5.0322    2.6544   -0.0369 C   0  0  0  0  0  0  0  0  0  0  0  0
    4.3235    1.9775    0.9601 C   0  0  0  0  0  0  0  0  0  0  0  0
    1.0420    0.9534    2.1024 C   0  0  0  0  0  0  0  0  0  0  0  0
   -0.3103    1.0306    1.7586 C   0  0  0  0  0  0  0  0  0  0  0  0
   -2.7638    1.3688   -0.0058 N   0  0  0  0  0  0  0  0  0  0  0  0
   -4.0446    1.5221   -0.4425 C   0  0  0  0  0  0  0  0  0  0  0  0
   -4.4677    2.7518   -0.9740 C   0  0  0  0  0  0  0  0  0  0  0  0
   -5.7795    2.9101   -1.4263 C   0  0  0  0  0  0  0  0  0  0  0  0
   -6.6790    1.8448   -1.3554 C   0  0  0  0  0  0  0  0  0  0  0  0
   -6.2724    0.6153   -0.8313 C   0  0  0  0  0  0  0  0  0  0  0  0
   -4.9520    0.4412   -0.3699 C   0  0  0  0  0  0  0  0  0  0  0  0
   -4.5149   -0.7799    0.1721 C   0  0  0  0  0  0  0  0  0  0  0  0
   -5.3179   -1.7503    0.2680 O   0  0  0  0  0  0  0  0  0  0  0  0
  1  2  1  0
  2  3  1  0
  3  4  1  0
  4  5  2  0
  4  6  1  0
  6  7  4  0
  7  8  1  0
  8  9  4  0
  9 10  4  0
 10 11  4  0
 11 12  1  0
 12 13  1  0
 13 14  4  0
 14 15  4  0
 15 16  4  0
 16 17  1  0
 17 18  1  0
 18 19  1  0
 18 20  1  0
 18 21  1  0
 16 22  4  0
 22 23  4  0
 11 24  4  0
 24 25  4  0
  7 26  4  0
 26 27  4  0
 27 28  4  0
 28 29  4  0
 29 30  4  0
 30 31  4  0
 31 32  4  0
 32 33  4  0
 33 34  2  0
 23 13  4  0
 25  8  4  0
 32 27  4  0
 33  6  4  0
M  END
>  <SMILES>  (40) 
CCOC(=O)c4c(c2ccc(Cc1ccc(OC(F)(F)F)cc1)cc2)[nH]c3ccccc3c4=O

>  <NumConformers>  (40) 
48

>  <EnergyUnits>  (40) 
RDKit_forcefield

>  <Processing_Time>  (40) 
83.7s

>  <Original_Conformers>  (40) 
500

>  <Total_Conformers>  (40) 
48

>  <Energy>  (40) 
69.720911757054651

>  <Energy_Unit>  (40) 
RDKit_forcefield

>  <Rank>  (40) 
40

>  <Conformer_Index>  (40) 
39

$$$$
GN-171
     RDKit          3D

 34 37  0  0  0  0  0  0  0  0999 V2000
   -0.9791   -3.9780   -2.3841 C   0  0  0  0  0  0  0  0  0  0  0  0
   -0.9375   -3.8813   -0.8635 C   0  0  0  0  0  0  0  0  0  0  0  0
   -1.8761   -2.9150   -0.3956 O   0  0  0  0  0  0  0  0  0  0  0  0
   -1.6681   -1.5327   -0.4804 C   0  0  0  0  0  0  0  0  0  0  0  0
   -0.5887   -1.0818   -0.9539 O   0  0  0  0  0  0  0  0  0  0  0  0
   -2.7289   -0.5987   -0.0233 C   0  0  0  0  0  0  0  0  0  0  0  0
   -2.4158    0.6316    0.6106 C   0  0  0  0  0  0  0  0  0  0  0  0
   -1.0254    0.9914    0.9770 C   0  0  0  0  0  0  0  0  0  0  0  0
   -0.4675    2.1942    0.5189 C   0  0  0  0  0  0  0  0  0  0  0  0
    0.8406    2.5426    0.8669 C   0  0  0  0  0  0  0  0  0  0  0  0
    1.6016    1.7020    1.6946 C   0  0  0  0  0  0  0  0  0  0  0  0
    3.0265    2.0515    2.0270 C   0  0  0  0  0  0  0  0  0  0  0  0
    3.9550    1.4784    0.9911 C   0  0  0  0  0  0  0  0  0  0  0  0
    4.2782    2.2173   -0.1569 C   0  0  0  0  0  0  0  0  0  0  0  0
    5.1082    1.6683   -1.1381 C   0  0  0  0  0  0  0  0  0  0  0  0
    5.6202    0.3731   -0.9962 C   0  0  0  0  0  0  0  0  0  0  0  0
    6.4482   -0.1275   -2.0139 O   0  0  0  0  0  0  0  0  0  0  0  0
    7.0461   -1.4220   -2.0274 C   0  0  0  0  0  0  0  0  0  0  0  0
    7.7909   -1.5597   -3.1826 F   0  0  0  0  0  0  0  0  0  0  0  0
    6.0673   -2.3994   -2.0088 F   0  0  0  0  0  0  0  0  0  0  0  0
    7.8836   -1.5719   -0.9365 F   0  0  0  0  0  0  0  0  0  0  0  0
    5.2863   -0.3736    0.1506 C   0  0  0  0  0  0  0  0  0  0  0  0
    4.4565    0.1755    1.1327 C   0  0  0  0  0  0  0  0  0  0  0  0
    1.0405    0.5022    2.1591 C   0  0  0  0  0  0  0  0  0  0  0  0
   -0.2671    0.1538    1.8109 C   0  0  0  0  0  0  0  0  0  0  0  0
   -3.4155    1.5009    0.9383 N   0  0  0  0  0  0  0  0  0  0  0  0
   -4.7278    1.2186    0.7079 C   0  0  0  0  0  0  0  0  0  0  0  0
   -5.7243    2.1385    1.0751 C   0  0  0  0  0  0  0  0  0  0  0  0
   -7.0709    1.8479    0.8462 C   0  0  0  0  0  0  0  0  0  0  0  0
   -7.4354    0.6395    0.2507 C   0  0  0  0  0  0  0  0  0  0  0  0
   -6.4555   -0.2850   -0.1197 C   0  0  0  0  0  0  0  0  0  0  0  0
   -5.0928   -0.0057    0.1057 C   0  0  0  0  0  0  0  0  0  0  0  0
   -4.0829   -0.9114   -0.2634 C   0  0  0  0  0  0  0  0  0  0  0  0
   -4.3900   -1.9973   -0.8304 O   0  0  0  0  0  0  0  0  0  0  0  0
  1  2  1  0
  2  3  1  0
  3  4  1  0
  4  5  2  0
  4  6  1  0
  6  7  4  0
  7  8  1  0
  8  9  4  0
  9 10  4  0
 10 11  4  0
 11 12  1  0
 12 13  1  0
 13 14  4  0
 14 15  4  0
 15 16  4  0
 16 17  1  0
 17 18  1  0
 18 19  1  0
 18 20  1  0
 18 21  1  0
 16 22  4  0
 22 23  4  0
 11 24  4  0
 24 25  4  0
  7 26  4  0
 26 27  4  0
 27 28  4  0
 28 29  4  0
 29 30  4  0
 30 31  4  0
 31 32  4  0
 32 33  4  0
 33 34  2  0
 23 13  4  0
 25  8  4  0
 32 27  4  0
 33  6  4  0
M  END
>  <SMILES>  (41) 
CCOC(=O)c4c(c2ccc(Cc1ccc(OC(F)(F)F)cc1)cc2)[nH]c3ccccc3c4=O

>  <NumConformers>  (41) 
48

>  <EnergyUnits>  (41) 
RDKit_forcefield

>  <Processing_Time>  (41) 
83.7s

>  <Original_Conformers>  (41) 
500

>  <Total_Conformers>  (41) 
48

>  <Energy>  (41) 
69.928042783690159

>  <Energy_Unit>  (41) 
RDKit_forcefield

>  <Rank>  (41) 
41

>  <Conformer_Index>  (41) 
40

$$$$
GN-171
     RDKit          3D

 34 37  0  0  0  0  0  0  0  0999 V2000
   -1.1227   -3.4482   -3.1481 C   0  0  0  0  0  0  0  0  0  0  0  0
   -1.2589   -1.9629   -3.4625 C   0  0  0  0  0  0  0  0  0  0  0  0
   -2.1351   -1.3302   -2.5321 O   0  0  0  0  0  0  0  0  0  0  0  0
   -1.7674   -1.0119   -1.2189 C   0  0  0  0  0  0  0  0  0  0  0  0
   -0.5967   -1.2505   -0.8127 O   0  0  0  0  0  0  0  0  0  0  0  0
   -2.7651   -0.4041   -0.3012 C   0  0  0  0  0  0  0  0  0  0  0  0
   -2.3943    0.5664    0.6654 C   0  0  0  0  0  0  0  0  0  0  0  0
   -1.0246    1.1296    0.7232 C   0  0  0  0  0  0  0  0  0  0  0  0
   -0.2889    1.0654    1.9159 C   0  0  0  0  0  0  0  0  0  0  0  0
    1.0008    1.6005    1.9788 C   0  0  0  0  0  0  0  0  0  0  0  0
    1.5644    2.2256    0.8553 C   0  0  0  0  0  0  0  0  0  0  0  0
    2.9716    2.7551    0.9070 C   0  0  0  0  0  0  0  0  0  0  0  0
    3.9425    1.6845    0.4888 C   0  0  0  0  0  0  0  0  0  0  0  0
    4.2877    1.5298   -0.8623 C   0  0  0  0  0  0  0  0  0  0  0  0
    5.1574    0.5089   -1.2552 C   0  0  0  0  0  0  0  0  0  0  0  0
    5.6883   -0.3785   -0.3116 C   0  0  0  0  0  0  0  0  0  0  0  0
    6.5561   -1.3856   -0.7638 O   0  0  0  0  0  0  0  0  0  0  0  0
    7.1772   -2.3694    0.0606 C   0  0  0  0  0  0  0  0  0  0  0  0
    6.2161   -3.1411    0.6888 F   0  0  0  0  0  0  0  0  0  0  0  0
    7.9586   -3.1887   -0.7307 F   0  0  0  0  0  0  0  0  0  0  0  0
    7.9842   -1.7600    1.0046 F   0  0  0  0  0  0  0  0  0  0  0  0
    5.3329   -0.2306    1.0435 C   0  0  0  0  0  0  0  0  0  0  0  0
    4.4632    0.7909    1.4371 C   0  0  0  0  0  0  0  0  0  0  0  0
    0.8252    2.2967   -0.3358 C   0  0  0  0  0  0  0  0  0  0  0  0
   -0.4640    1.7613   -0.3987 C   0  0  0  0  0  0  0  0  0  0  0  0
   -3.3238    1.0371    1.5470 N   0  0  0  0  0  0  0  0  0  0  0  0
   -4.6237    0.6318    1.5170 C   0  0  0  0  0  0  0  0  0  0  0  0
   -5.5488    1.1545    2.4362 C   0  0  0  0  0  0  0  0  0  0  0  0
   -6.8837    0.7457    2.4026 C   0  0  0  0  0  0  0  0  0  0  0  0
   -7.3075   -0.1858    1.4536 C   0  0  0  0  0  0  0  0  0  0  0  0
   -6.3987   -0.7142    0.5332 C   0  0  0  0  0  0  0  0  0  0  0  0
   -5.0488   -0.3105    0.5547 C   0  0  0  0  0  0  0  0  0  0  0  0
   -4.1085   -0.8302   -0.3521 C   0  0  0  0  0  0  0  0  0  0  0  0
   -4.4654   -1.6963   -1.1991 O   0  0  0  0  0  0  0  0  0  0  0  0
  1  2  1  0
  2  3  1  0
  3  4  1  0
  4  5  2  0
  4  6  1  0
  6  7  4  0
  7  8  1  0
  8  9  4  0
  9 10  4  0
 10 11  4  0
 11 12  1  0
 12 13  1  0
 13 14  4  0
 14 15  4  0
 15 16  4  0
 16 17  1  0
 17 18  1  0
 18 19  1  0
 18 20  1  0
 18 21  1  0
 16 22  4  0
 22 23  4  0
 11 24  4  0
 24 25  4  0
  7 26  4  0
 26 27  4  0
 27 28  4  0
 28 29  4  0
 29 30  4  0
 30 31  4  0
 31 32  4  0
 32 33  4  0
 33 34  2  0
 23 13  4  0
 25  8  4  0
 32 27  4  0
 33  6  4  0
M  END
>  <SMILES>  (42) 
CCOC(=O)c4c(c2ccc(Cc1ccc(OC(F)(F)F)cc1)cc2)[nH]c3ccccc3c4=O

>  <NumConformers>  (42) 
48

>  <EnergyUnits>  (42) 
RDKit_forcefield

>  <Processing_Time>  (42) 
83.7s

>  <Original_Conformers>  (42) 
500

>  <Total_Conformers>  (42) 
48

>  <Energy>  (42) 
69.939391235749667

>  <Energy_Unit>  (42) 
RDKit_forcefield

>  <Rank>  (42) 
42

>  <Conformer_Index>  (42) 
41

$$$$
GN-171
     RDKit          3D

 34 37  0  0  0  0  0  0  0  0999 V2000
   -0.9361   -3.7148   -2.6978 C   0  0  0  0  0  0  0  0  0  0  0  0
   -1.0350   -2.2593   -3.1388 C   0  0  0  0  0  0  0  0  0  0  0  0
   -1.9659   -1.5487   -2.3249 O   0  0  0  0  0  0  0  0  0  0  0  0
   -1.6863   -1.1286   -1.0184 C   0  0  0  0  0  0  0  0  0  0  0  0
   -0.5517   -1.3479   -0.5112 O   0  0  0  0  0  0  0  0  0  0  0  0
   -2.7356   -0.4350   -0.2276 C   0  0  0  0  0  0  0  0  0  0  0  0
   -2.4165    0.6026    0.6863 C   0  0  0  0  0  0  0  0  0  0  0  0
   -1.0414    1.1398    0.8106 C   0  0  0  0  0  0  0  0  0  0  0  0
   -0.3839    1.6849   -0.3040 C   0  0  0  0  0  0  0  0  0  0  0  0
    0.9115    2.1943   -0.1791 C   0  0  0  0  0  0  0  0  0  0  0  0
    1.5606    2.1820    1.0656 C   0  0  0  0  0  0  0  0  0  0  0  0
    2.9769    2.6751    1.1859 C   0  0  0  0  0  0  0  0  0  0  0  0
    3.9384    1.5711    0.8389 C   0  0  0  0  0  0  0  0  0  0  0  0
    4.4106    1.4280   -0.4747 C   0  0  0  0  0  0  0  0  0  0  0  0
    5.2671    0.3741   -0.8073 C   0  0  0  0  0  0  0  0  0  0  0  0
    5.6553   -0.5620    0.1710 C   0  0  0  0  0  0  0  0  0  0  0  0
    6.5072   -1.6434   -0.1078 O   0  0  0  0  0  0  0  0  0  0  0  0
    7.0792   -1.9353   -1.3812 C   0  0  0  0  0  0  0  0  0  0  0  0
    6.0815   -2.1614   -2.3124 F   0  0  0  0  0  0  0  0  0  0  0  0
    7.8818   -0.8879   -1.7956 F   0  0  0  0  0  0  0  0  0  0  0  0
    7.8533   -3.0742   -1.2732 F   0  0  0  0  0  0  0  0  0  0  0  0
    5.1737   -0.4203    1.4775 C   0  0  0  0  0  0  0  0  0  0  0  0
    4.3206    0.6350    1.8115 C   0  0  0  0  0  0  0  0  0  0  0  0
    0.8992    1.6444    2.1813 C   0  0  0  0  0  0  0  0  0  0  0  0
   -0.3973    1.1371    2.0568 C   0  0  0  0  0  0  0  0  0  0  0  0
   -3.3994    1.1621    1.4496 N   0  0  0  0  0  0  0  0  0  0  0  0
   -4.7031    0.7814    1.3479 C   0  0  0  0  0  0  0  0  0  0  0  0
   -5.6837    1.3973    2.1432 C   0  0  0  0  0  0  0  0  0  0  0  0
   -7.0220    1.0129    2.0360 C   0  0  0  0  0  0  0  0  0  0  0  0
   -7.3939    0.0124    1.1368 C   0  0  0  0  0  0  0  0  0  0  0  0
   -6.4296   -0.6086    0.3392 C   0  0  0  0  0  0  0  0  0  0  0  0
   -5.0758   -0.2296    0.4351 C   0  0  0  0  0  0  0  0  0  0  0  0
   -4.0813   -0.8397   -0.3489 C   0  0  0  0  0  0  0  0  0  0  0  0
   -4.3932   -1.7664   -1.1478 O   0  0  0  0  0  0  0  0  0  0  0  0
  1  2  1  0
  2  3  1  0
  3  4  1  0
  4  5  2  0
  4  6  1  0
  6  7  4  0
  7  8  1  0
  8  9  4  0
  9 10  4  0
 10 11  4  0
 11 12  1  0
 12 13  1  0
 13 14  4  0
 14 15  4  0
 15 16  4  0
 16 17  1  0
 17 18  1  0
 18 19  1  0
 18 20  1  0
 18 21  1  0
 16 22  4  0
 22 23  4  0
 11 24  4  0
 24 25  4  0
  7 26  4  0
 26 27  4  0
 27 28  4  0
 28 29  4  0
 29 30  4  0
 30 31  4  0
 31 32  4  0
 32 33  4  0
 33 34  2  0
 23 13  4  0
 25  8  4  0
 32 27  4  0
 33  6  4  0
M  END
>  <SMILES>  (43) 
CCOC(=O)c4c(c2ccc(Cc1ccc(OC(F)(F)F)cc1)cc2)[nH]c3ccccc3c4=O

>  <NumConformers>  (43) 
48

>  <EnergyUnits>  (43) 
RDKit_forcefield

>  <Processing_Time>  (43) 
83.7s

>  <Original_Conformers>  (43) 
500

>  <Total_Conformers>  (43) 
48

>  <Energy>  (43) 
69.962816483700209

>  <Energy_Unit>  (43) 
RDKit_forcefield

>  <Rank>  (43) 
43

>  <Conformer_Index>  (43) 
42

$$$$
GN-171
     RDKit          3D

 34 37  0  0  0  0  0  0  0  0999 V2000
   -1.1273   -4.2849   -1.9970 C   0  0  0  0  0  0  0  0  0  0  0  0
   -1.1784   -4.0950   -0.4859 C   0  0  0  0  0  0  0  0  0  0  0  0
   -2.0685   -3.0355   -0.1418 O   0  0  0  0  0  0  0  0  0  0  0  0
   -1.7545   -1.6801   -0.2999 C   0  0  0  0  0  0  0  0  0  0  0  0
   -0.6205   -1.3395   -0.7362 O   0  0  0  0  0  0  0  0  0  0  0  0
   -2.7674   -0.6456    0.0347 C   0  0  0  0  0  0  0  0  0  0  0  0
   -2.3988    0.6068    0.5913 C   0  0  0  0  0  0  0  0  0  0  0  0
   -1.0038    0.9057    0.9929 C   0  0  0  0  0  0  0  0  0  0  0  0
   -0.3374    0.0920    1.9235 C   0  0  0  0  0  0  0  0  0  0  0  0
    0.9751    0.3849    2.3038 C   0  0  0  0  0  0  0  0  0  0  0  0
    1.6322    1.5073    1.7749 C   0  0  0  0  0  0  0  0  0  0  0  0
    3.0606    1.7968    2.1473 C   0  0  0  0  0  0  0  0  0  0  0  0
    3.9949    1.1504    1.1609 C   0  0  0  0  0  0  0  0  0  0  0  0
    4.3967   -0.1825    1.3350 C   0  0  0  0  0  0  0  0  0  0  0  0
    5.2365   -0.7938    0.3996 C   0  0  0  0  0  0  0  0  0  0  0  0
    5.6825   -0.0899   -0.7253 C   0  0  0  0  0  0  0  0  0  0  0  0
    6.5294   -0.7523   -1.6290 O   0  0  0  0  0  0  0  0  0  0  0  0
    7.0794   -0.1785   -2.8132 C   0  0  0  0  0  0  0  0  0  0  0  0
    6.0653    0.1969   -3.6766 F   0  0  0  0  0  0  0  0  0  0  0  0
    7.8724   -1.1199   -3.4403 F   0  0  0  0  0  0  0  0  0  0  0  0
    7.8581    0.9195   -2.4940 F   0  0  0  0  0  0  0  0  0  0  0  0
    5.2687    1.2448   -0.9074 C   0  0  0  0  0  0  0  0  0  0  0  0
    4.4280    1.8560    0.0276 C   0  0  0  0  0  0  0  0  0  0  0  0
    0.9630    2.3247    0.8501 C   0  0  0  0  0  0  0  0  0  0  0  0
   -0.3491    2.0308    0.4688 C   0  0  0  0  0  0  0  0  0  0  0  0
   -3.3506    1.5606    0.8082 N   0  0  0  0  0  0  0  0  0  0  0  0
   -4.6681    1.3466    0.5382 C   0  0  0  0  0  0  0  0  0  0  0  0
   -5.6146    2.3536    0.7924 C   0  0  0  0  0  0  0  0  0  0  0  0
   -6.9671    2.1338    0.5234 C   0  0  0  0  0  0  0  0  0  0  0  0
   -7.3872    0.9101   -0.0003 C   0  0  0  0  0  0  0  0  0  0  0  0
   -6.4574   -0.1006   -0.2577 C   0  0  0  0  0  0  0  0  0  0  0  0
   -5.0894    0.1068    0.0094 C   0  0  0  0  0  0  0  0  0  0  0  0
   -4.1285   -0.8871   -0.2457 C   0  0  0  0  0  0  0  0  0  0  0  0
   -4.4849   -1.9902   -0.7465 O   0  0  0  0  0  0  0  0  0  0  0  0
  1  2  1  0
  2  3  1  0
  3  4  1  0
  4  5  2  0
  4  6  1  0
  6  7  4  0
  7  8  1  0
  8  9  4  0
  9 10  4  0
 10 11  4  0
 11 12  1  0
 12 13  1  0
 13 14  4  0
 14 15  4  0
 15 16  4  0
 16 17  1  0
 17 18  1  0
 18 19  1  0
 18 20  1  0
 18 21  1  0
 16 22  4  0
 22 23  4  0
 11 24  4  0
 24 25  4  0
  7 26  4  0
 26 27  4  0
 27 28  4  0
 28 29  4  0
 29 30  4  0
 30 31  4  0
 31 32  4  0
 32 33  4  0
 33 34  2  0
 23 13  4  0
 25  8  4  0
 32 27  4  0
 33  6  4  0
M  END
>  <SMILES>  (44) 
CCOC(=O)c4c(c2ccc(Cc1ccc(OC(F)(F)F)cc1)cc2)[nH]c3ccccc3c4=O

>  <NumConformers>  (44) 
48

>  <EnergyUnits>  (44) 
RDKit_forcefield

>  <Processing_Time>  (44) 
83.7s

>  <Original_Conformers>  (44) 
500

>  <Total_Conformers>  (44) 
48

>  <Energy>  (44) 
69.967515031165277

>  <Energy_Unit>  (44) 
RDKit_forcefield

>  <Rank>  (44) 
44

>  <Conformer_Index>  (44) 
43

$$$$
GN-171
     RDKit          3D

 34 37  0  0  0  0  0  0  0  0999 V2000
   -3.6756   -5.4206   -1.0032 C   0  0  0  0  0  0  0  0  0  0  0  0
   -2.9073   -4.9344    0.2202 C   0  0  0  0  0  0  0  0  0  0  0  0
   -3.1721   -3.5547    0.4646 O   0  0  0  0  0  0  0  0  0  0  0  0
   -2.6154   -2.5156   -0.2914 C   0  0  0  0  0  0  0  0  0  0  0  0
   -1.8015   -2.7733   -1.2208 O   0  0  0  0  0  0  0  0  0  0  0  0
   -2.9977   -1.1092   -0.0042 C   0  0  0  0  0  0  0  0  0  0  0  0
   -2.0673   -0.0444   -0.1241 C   0  0  0  0  0  0  0  0  0  0  0  0
   -0.6321   -0.2860   -0.4062 C   0  0  0  0  0  0  0  0  0  0  0  0
   -0.0134    0.3504   -1.4926 C   0  0  0  0  0  0  0  0  0  0  0  0
    1.3448    0.1450   -1.7507 C   0  0  0  0  0  0  0  0  0  0  0  0
    2.1036   -0.6987   -0.9243 C   0  0  0  0  0  0  0  0  0  0  0  0
    3.5745   -0.8869   -1.1780 C   0  0  0  0  0  0  0  0  0  0  0  0
    4.3665    0.1597   -0.4424 C   0  0  0  0  0  0  0  0  0  0  0  0
    4.6370    1.3973   -1.0458 C   0  0  0  0  0  0  0  0  0  0  0  0
    5.3397    2.3852   -0.3494 C   0  0  0  0  0  0  0  0  0  0  0  0
    5.7756    2.1510    0.9694 C   0  0  0  0  0  0  0  0  0  0  0  0
    6.4843    3.1061    1.7161 O   0  0  0  0  0  0  0  0  0  0  0  0
    6.8486    4.4060    1.2568 C   0  0  0  0  0  0  0  0  0  0  0  0
    7.6691    4.3072    0.1474 F   0  0  0  0  0  0  0  0  0  0  0  0
    7.5351    5.0600    2.2614 F   0  0  0  0  0  0  0  0  0  0  0  0
    5.7159    5.1354    0.9428 F   0  0  0  0  0  0  0  0  0  0  0  0
    5.4934    0.9188    1.5710 C   0  0  0  0  0  0  0  0  0  0  0  0
    4.7907   -0.0689    0.8753 C   0  0  0  0  0  0  0  0  0  0  0  0
    1.4910   -1.3141    0.1785 C   0  0  0  0  0  0  0  0  0  0  0  0
    0.1330   -1.1084    0.4366 C   0  0  0  0  0  0  0  0  0  0  0  0
   -2.4797    1.2426    0.0670 N   0  0  0  0  0  0  0  0  0  0  0  0
   -3.7623    1.5518    0.4048 C   0  0  0  0  0  0  0  0  0  0  0  0
   -4.1377    2.8908    0.6052 C   0  0  0  0  0  0  0  0  0  0  0  0
   -5.4506    3.2096    0.9586 C   0  0  0  0  0  0  0  0  0  0  0  0
   -6.3992    2.1980    1.1155 C   0  0  0  0  0  0  0  0  0  0  0  0
   -6.0403    0.8620    0.9195 C   0  0  0  0  0  0  0  0  0  0  0  0
   -4.7191    0.5253    0.5635 C   0  0  0  0  0  0  0  0  0  0  0  0
   -4.3289   -0.8086    0.3516 C   0  0  0  0  0  0  0  0  0  0  0  0
   -5.1793   -1.7361    0.4599 O   0  0  0  0  0  0  0  0  0  0  0  0
  1  2  1  0
  2  3  1  0
  3  4  1  0
  4  5  2  0
  4  6  1  0
  6  7  4  0
  7  8  1  0
  8  9  4  0
  9 10  4  0
 10 11  4  0
 11 12  1  0
 12 13  1  0
 13 14  4  0
 14 15  4  0
 15 16  4  0
 16 17  1  0
 17 18  1  0
 18 19  1  0
 18 20  1  0
 18 21  1  0
 16 22  4  0
 22 23  4  0
 11 24  4  0
 24 25  4  0
  7 26  4  0
 26 27  4  0
 27 28  4  0
 28 29  4  0
 29 30  4  0
 30 31  4  0
 31 32  4  0
 32 33  4  0
 33 34  2  0
 23 13  4  0
 25  8  4  0
 32 27  4  0
 33  6  4  0
M  END
>  <SMILES>  (45) 
CCOC(=O)c4c(c2ccc(Cc1ccc(OC(F)(F)F)cc1)cc2)[nH]c3ccccc3c4=O

>  <NumConformers>  (45) 
48

>  <EnergyUnits>  (45) 
RDKit_forcefield

>  <Processing_Time>  (45) 
83.7s

>  <Original_Conformers>  (45) 
500

>  <Total_Conformers>  (45) 
48

>  <Energy>  (45) 
70.068679388291542

>  <Energy_Unit>  (45) 
RDKit_forcefield

>  <Rank>  (45) 
45

>  <Conformer_Index>  (45) 
44

$$$$
GN-171
     RDKit          3D

 34 37  0  0  0  0  0  0  0  0999 V2000
   -3.7072   -5.3113   -1.3911 C   0  0  0  0  0  0  0  0  0  0  0  0
   -3.0839   -4.2371   -2.2747 C   0  0  0  0  0  0  0  0  0  0  0  0
   -3.3262   -2.9395   -1.7352 O   0  0  0  0  0  0  0  0  0  0  0  0
   -2.6395   -2.4222   -0.6296 C   0  0  0  0  0  0  0  0  0  0  0  0
   -1.7231   -3.0943   -0.0811 O   0  0  0  0  0  0  0  0  0  0  0  0
   -3.0038   -1.0845   -0.0962 C   0  0  0  0  0  0  0  0  0  0  0  0
   -2.0275   -0.2036    0.4372 C   0  0  0  0  0  0  0  0  0  0  0  0
   -0.5778   -0.5056    0.3671 C   0  0  0  0  0  0  0  0  0  0  0  0
    0.0432   -0.7444   -0.8696 C   0  0  0  0  0  0  0  0  0  0  0  0
    1.4146   -1.0056   -0.9315 C   0  0  0  0  0  0  0  0  0  0  0  0
    2.1849   -1.0294    0.2416 C   0  0  0  0  0  0  0  0  0  0  0  0
    3.6685   -1.2686    0.1706 C   0  0  0  0  0  0  0  0  0  0  0  0
    4.3970    0.0364   -0.0028 C   0  0  0  0  0  0  0  0  0  0  0  0
    4.6367    0.5487   -1.2867 C   0  0  0  0  0  0  0  0  0  0  0  0
    5.2794    1.7795   -1.4460 C   0  0  0  0  0  0  0  0  0  0  0  0
    5.6839    2.5224   -0.3306 C   0  0  0  0  0  0  0  0  0  0  0  0
    6.3245    3.7526   -0.5506 O   0  0  0  0  0  0  0  0  0  0  0  0
    6.7946    4.6306    0.4698 C   0  0  0  0  0  0  0  0  0  0  0  0
    7.3674    5.7395   -0.1220 F   0  0  0  0  0  0  0  0  0  0  0  0
    5.7413    5.0442    1.2656 F   0  0  0  0  0  0  0  0  0  0  0  0
    7.7491    3.9949    1.2434 F   0  0  0  0  0  0  0  0  0  0  0  0
    5.4330    2.0139    0.9588 C   0  0  0  0  0  0  0  0  0  0  0  0
    4.7904    0.7825    1.1186 C   0  0  0  0  0  0  0  0  0  0  0  0
    1.5688   -0.7639    1.4747 C   0  0  0  0  0  0  0  0  0  0  0  0
    0.1972   -0.5029    1.5366 C   0  0  0  0  0  0  0  0  0  0  0  0
   -2.4137    0.9811    0.9943 N   0  0  0  0  0  0  0  0  0  0  0  0
   -3.7167    1.3752    1.0330 C   0  0  0  0  0  0  0  0  0  0  0  0
   -4.0654    2.6102    1.6048 C   0  0  0  0  0  0  0  0  0  0  0  0
   -5.4002    3.0195    1.6391 C   0  0  0  0  0  0  0  0  0  0  0  0
   -6.3973    2.2025    1.1041 C   0  0  0  0  0  0  0  0  0  0  0  0
   -6.0654    0.9717    0.5322 C   0  0  0  0  0  0  0  0  0  0  0  0
   -4.7227    0.5461    0.4898 C   0  0  0  0  0  0  0  0  0  0  0  0
   -4.3577   -0.6901   -0.0713 C   0  0  0  0  0  0  0  0  0  0  0  0
   -5.2482   -1.4568   -0.5340 O   0  0  0  0  0  0  0  0  0  0  0  0
  1  2  1  0
  2  3  1  0
  3  4  1  0
  4  5  2  0
  4  6  1  0
  6  7  4  0
  7  8  1  0
  8  9  4  0
  9 10  4  0
 10 11  4  0
 11 12  1  0
 12 13  1  0
 13 14  4  0
 14 15  4  0
 15 16  4  0
 16 17  1  0
 17 18  1  0
 18 19  1  0
 18 20  1  0
 18 21  1  0
 16 22  4  0
 22 23  4  0
 11 24  4  0
 24 25  4  0
  7 26  4  0
 26 27  4  0
 27 28  4  0
 28 29  4  0
 29 30  4  0
 30 31  4  0
 31 32  4  0
 32 33  4  0
 33 34  2  0
 23 13  4  0
 25  8  4  0
 32 27  4  0
 33  6  4  0
M  END
>  <SMILES>  (46) 
CCOC(=O)c4c(c2ccc(Cc1ccc(OC(F)(F)F)cc1)cc2)[nH]c3ccccc3c4=O

>  <NumConformers>  (46) 
48

>  <EnergyUnits>  (46) 
RDKit_forcefield

>  <Processing_Time>  (46) 
83.7s

>  <Original_Conformers>  (46) 
500

>  <Total_Conformers>  (46) 
48

>  <Energy>  (46) 
70.068769526528484

>  <Energy_Unit>  (46) 
RDKit_forcefield

>  <Rank>  (46) 
46

>  <Conformer_Index>  (46) 
45

$$$$
GN-171
     RDKit          3D

 34 37  0  0  0  0  0  0  0  0999 V2000
   -3.5983   -5.1054   -1.9104 C   0  0  0  0  0  0  0  0  0  0  0  0
   -2.8804   -3.9529   -2.6032 C   0  0  0  0  0  0  0  0  0  0  0  0
   -3.1693   -2.7176   -1.9519 O   0  0  0  0  0  0  0  0  0  0  0  0
   -2.5849   -2.3292   -0.7399 C   0  0  0  0  0  0  0  0  0  0  0  0
   -1.7246   -3.0667   -0.1844 O   0  0  0  0  0  0  0  0  0  0  0  0
   -2.9884   -1.0487   -0.1059 C   0  0  0  0  0  0  0  0  0  0  0  0
   -2.0530   -0.2275    0.5752 C   0  0  0  0  0  0  0  0  0  0  0  0
   -0.6003   -0.5256    0.5720 C   0  0  0  0  0  0  0  0  0  0  0  0
    0.0981   -0.6660   -0.6385 C   0  0  0  0  0  0  0  0  0  0  0  0
    1.4717   -0.9227   -0.6351 C   0  0  0  0  0  0  0  0  0  0  0  0
    2.1682   -1.0366    0.5783 C   0  0  0  0  0  0  0  0  0  0  0  0
    3.6545   -1.2694    0.5795 C   0  0  0  0  0  0  0  0  0  0  0  0
    4.3856    0.0407    0.4649 C   0  0  0  0  0  0  0  0  0  0  0  0
    4.7460    0.5437   -0.7946 C   0  0  0  0  0  0  0  0  0  0  0  0
    5.3918    1.7788   -0.9046 C   0  0  0  0  0  0  0  0  0  0  0  0
    5.6776    2.5363    0.2481 C   0  0  0  0  0  0  0  0  0  0  0  0
    6.3217    3.7832    0.1969 O   0  0  0  0  0  0  0  0  0  0  0  0
    6.7709    4.4298   -0.9922 C   0  0  0  0  0  0  0  0  0  0  0  0
    5.7018    4.6753   -1.8351 F   0  0  0  0  0  0  0  0  0  0  0  0
    7.7087    3.6431   -1.6370 F   0  0  0  0  0  0  0  0  0  0  0  0
    7.3574    5.6341   -0.6542 F   0  0  0  0  0  0  0  0  0  0  0  0
    5.3060    2.0352    1.5014 C   0  0  0  0  0  0  0  0  0  0  0  0
    4.6616    0.7999    1.6119 C   0  0  0  0  0  0  0  0  0  0  0  0
    1.4756   -0.8684    1.7875 C   0  0  0  0  0  0  0  0  0  0  0  0
    0.1010   -0.6149    1.7840 C   0  0  0  0  0  0  0  0  0  0  0  0
   -2.4801    0.8990    1.2169 N   0  0  0  0  0  0  0  0  0  0  0  0
   -3.7843    1.2917    1.2049 C   0  0  0  0  0  0  0  0  0  0  0  0
   -4.1752    2.4666    1.8689 C   0  0  0  0  0  0  0  0  0  0  0  0
   -5.5105    2.8750    1.8519 C   0  0  0  0  0  0  0  0  0  0  0  0
   -6.4661    2.1175    1.1731 C   0  0  0  0  0  0  0  0  0  0  0  0
   -6.0920    0.9470    0.5080 C   0  0  0  0  0  0  0  0  0  0  0  0
   -4.7482    0.5229    0.5162 C   0  0  0  0  0  0  0  0  0  0  0  0
   -4.3416   -0.6539   -0.1365 C   0  0  0  0  0  0  0  0  0  0  0  0
   -5.1951   -1.3686   -0.7333 O   0  0  0  0  0  0  0  0  0  0  0  0
  1  2  1  0
  2  3  1  0
  3  4  1  0
  4  5  2  0
  4  6  1  0
  6  7  4  0
  7  8  1  0
  8  9  4  0
  9 10  4  0
 10 11  4  0
 11 12  1  0
 12 13  1  0
 13 14  4  0
 14 15  4  0
 15 16  4  0
 16 17  1  0
 17 18  1  0
 18 19  1  0
 18 20  1  0
 18 21  1  0
 16 22  4  0
 22 23  4  0
 11 24  4  0
 24 25  4  0
  7 26  4  0
 26 27  4  0
 27 28  4  0
 28 29  4  0
 29 30  4  0
 30 31  4  0
 31 32  4  0
 32 33  4  0
 33 34  2  0
 23 13  4  0
 25  8  4  0
 32 27  4  0
 33  6  4  0
M  END
>  <SMILES>  (47) 
CCOC(=O)c4c(c2ccc(Cc1ccc(OC(F)(F)F)cc1)cc2)[nH]c3ccccc3c4=O

>  <NumConformers>  (47) 
48

>  <EnergyUnits>  (47) 
RDKit_forcefield

>  <Processing_Time>  (47) 
83.7s

>  <Original_Conformers>  (47) 
500

>  <Total_Conformers>  (47) 
48

>  <Energy>  (47) 
70.096316653469131

>  <Energy_Unit>  (47) 
RDKit_forcefield

>  <Rank>  (47) 
47

>  <Conformer_Index>  (47) 
46

$$$$
GN-171
     RDKit          3D

 34 37  0  0  0  0  0  0  0  0999 V2000
   -3.4486   -5.4984   -0.5322 C   0  0  0  0  0  0  0  0  0  0  0  0
   -2.6325   -4.8739    0.5934 C   0  0  0  0  0  0  0  0  0  0  0  0
   -2.9665   -3.4967    0.7516 O   0  0  0  0  0  0  0  0  0  0  0  0
   -2.5305   -2.4921   -0.1215 C   0  0  0  0  0  0  0  0  0  0  0  0
   -1.7634   -2.7760   -1.0826 O   0  0  0  0  0  0  0  0  0  0  0  0
   -2.9851   -1.0926    0.0794 C   0  0  0  0  0  0  0  0  0  0  0  0
   -2.1338    0.0122   -0.1833 C   0  0  0  0  0  0  0  0  0  0  0  0
   -0.7048   -0.1672   -0.5356 C   0  0  0  0  0  0  0  0  0  0  0  0
   -0.1922    0.4126   -1.7057 C   0  0  0  0  0  0  0  0  0  0  0  0
    1.1556    0.2540   -2.0397 C   0  0  0  0  0  0  0  0  0  0  0  0
    2.0099   -0.4857   -1.2072 C   0  0  0  0  0  0  0  0  0  0  0  0
    3.4667   -0.6343   -1.5523 C   0  0  0  0  0  0  0  0  0  0  0  0
    4.2752    0.4399   -0.8772 C   0  0  0  0  0  0  0  0  0  0  0  0
    4.8783    0.1989    0.3666 C   0  0  0  0  0  0  0  0  0  0  0  0
    5.6051    1.2068    1.0072 C   0  0  0  0  0  0  0  0  0  0  0  0
    5.7290    2.4790    0.4154 C   0  0  0  0  0  0  0  0  0  0  0  0
    6.4475    3.5277    1.0125 O   0  0  0  0  0  0  0  0  0  0  0  0
    7.1477    3.4459    2.2516 C   0  0  0  0  0  0  0  0  0  0  0  0
    8.1328    2.4774    2.1796 F   0  0  0  0  0  0  0  0  0  0  0  0
    7.7404    4.6661    2.5124 F   0  0  0  0  0  0  0  0  0  0  0  0
    6.2687    3.1495    3.2776 F   0  0  0  0  0  0  0  0  0  0  0  0
    5.1135    2.7187   -0.8189 C   0  0  0  0  0  0  0  0  0  0  0  0
    4.3897    1.7105   -1.4611 C   0  0  0  0  0  0  0  0  0  0  0  0
    1.5043   -1.0400   -0.0210 C   0  0  0  0  0  0  0  0  0  0  0  0
    0.1572   -0.8794    0.3141 C   0  0  0  0  0  0  0  0  0  0  0  0
   -2.6184    1.2837   -0.0746 N   0  0  0  0  0  0  0  0  0  0  0  0
   -3.8985    1.5425    0.3122 C   0  0  0  0  0  0  0  0  0  0  0  0
   -4.3507    2.8685    0.4194 C   0  0  0  0  0  0  0  0  0  0  0  0
   -5.6611    3.1362    0.8213 C   0  0  0  0  0  0  0  0  0  0  0  0
   -6.5305    2.0860    1.1205 C   0  0  0  0  0  0  0  0  0  0  0  0
   -6.0947    0.7623    1.0188 C   0  0  0  0  0  0  0  0  0  0  0  0
   -4.7753    0.4771    0.6144 C   0  0  0  0  0  0  0  0  0  0  0  0
   -4.3105   -0.8439    0.4915 C   0  0  0  0  0  0  0  0  0  0  0  0
   -5.0899   -1.8089    0.7298 O   0  0  0  0  0  0  0  0  0  0  0  0
  1  2  1  0
  2  3  1  0
  3  4  1  0
  4  5  2  0
  4  6  1  0
  6  7  4  0
  7  8  1  0
  8  9  4  0
  9 10  4  0
 10 11  4  0
 11 12  1  0
 12 13  1  0
 13 14  4  0
 14 15  4  0
 15 16  4  0
 16 17  1  0
 17 18  1  0
 18 19  1  0
 18 20  1  0
 18 21  1  0
 16 22  4  0
 22 23  4  0
 11 24  4  0
 24 25  4  0
  7 26  4  0
 26 27  4  0
 27 28  4  0
 28 29  4  0
 29 30  4  0
 30 31  4  0
 31 32  4  0
 32 33  4  0
 33 34  2  0
 23 13  4  0
 25  8  4  0
 32 27  4  0
 33  6  4  0
M  END
>  <SMILES>  (48) 
CCOC(=O)c4c(c2ccc(Cc1ccc(OC(F)(F)F)cc1)cc2)[nH]c3ccccc3c4=O

>  <NumConformers>  (48) 
48

>  <EnergyUnits>  (48) 
RDKit_forcefield

>  <Processing_Time>  (48) 
83.7s

>  <Original_Conformers>  (48) 
500

>  <Total_Conformers>  (48) 
48

>  <Energy>  (48) 
70.119926403533711

>  <Energy_Unit>  (48) 
RDKit_forcefield

>  <Rank>  (48) 
48

>  <Conformer_Index>  (48) 
47

$$$$
