LT-9
     RDKit          3D

 25 28  0  0  0  0  0  0  0  0999 V2000
    4.8861   -2.6352    0.5981 O   0  0  0  0  0  0  0  0  0  0  0  0
    4.1788   -1.6079    0.4103 C   0  0  0  0  0  0  0  0  0  0  0  0
    2.8248   -1.7566    0.1063 C   0  0  0  0  0  0  0  0  0  0  0  0
    2.0239   -0.6237   -0.1097 C   0  0  0  0  0  0  0  0  0  0  0  0
    0.5849   -0.7770   -0.4420 C   0  0  0  0  0  0  0  0  0  0  0  0
   -0.0092    0.0415   -1.4180 C   0  0  0  0  0  0  0  0  0  0  0  0
   -1.3642   -0.0975   -1.7312 C   0  0  0  0  0  0  0  0  0  0  0  0
   -2.1473   -1.0620   -1.0797 C   0  0  0  0  0  0  0  0  0  0  0  0
   -3.6149   -1.1832   -1.3881 C   0  0  0  0  0  0  0  0  0  0  0  0
   -4.4106   -0.2703   -0.4953 C   0  0  0  0  0  0  0  0  0  0  0  0
   -4.8600   -0.7191    0.7580 C   0  0  0  0  0  0  0  0  0  0  0  0
   -5.5680    0.1421    1.6020 C   0  0  0  0  0  0  0  0  0  0  0  0
   -5.8245    1.4579    1.2056 C   0  0  0  0  0  0  0  0  0  0  0  0
   -6.5097    2.2918    2.0261 F   0  0  0  0  0  0  0  0  0  0  0  0
   -5.3699    1.9152   -0.0347 C   0  0  0  0  0  0  0  0  0  0  0  0
   -4.6615    1.0571   -0.8816 C   0  0  0  0  0  0  0  0  0  0  0  0
   -1.5612   -1.8725   -0.0960 C   0  0  0  0  0  0  0  0  0  0  0  0
   -0.2061   -1.7350    0.2171 C   0  0  0  0  0  0  0  0  0  0  0  0
    2.5806    0.6211   -0.0189 N   0  0  0  0  0  0  0  0  0  0  0  0
    3.9010    0.8000    0.2776 C   0  0  0  0  0  0  0  0  0  0  0  0
    4.4388    2.0945    0.3663 C   0  0  0  0  0  0  0  0  0  0  0  0
    5.7900    2.2770    0.6704 C   0  0  0  0  0  0  0  0  0  0  0  0
    6.6158    1.1726    0.8891 C   0  0  0  0  0  0  0  0  0  0  0  0
    6.0960   -0.1218    0.8058 C   0  0  0  0  0  0  0  0  0  0  0  0
    4.7362   -0.3211    0.5005 C   0  0  0  0  0  0  0  0  0  0  0  0
  1  2  2  0
  2  3  4  0
  3  4  4  0
  4  5  1  0
  5  6  4  0
  6  7  4  0
  7  8  4  0
  8  9  1  0
  9 10  1  0
 10 11  4  0
 11 12  4  0
 12 13  4  0
 13 14  1  0
 13 15  4  0
 15 16  4  0
  8 17  4  0
 17 18  4  0
  4 19  4  0
 19 20  4  0
 20 21  4  0
 21 22  4  0
 22 23  4  0
 23 24  4  0
 24 25  4  0
 16 10  4  0
 18  5  4  0
 25  2  4  0
 25 20  4  0
M  END
>  <SMILES>  (1) 
O=c3cc(c2ccc(Cc1ccc(F)cc1)cc2)[nH]c4ccccc34

>  <NumConformers>  (1) 
4

>  <EnergyUnits>  (1) 
RDKit_forcefield

>  <Total_Conformers>  (1) 
4

>  <Energy>  (1) 
54.128363563848822

>  <Energy_Unit>  (1) 
RDKit_forcefield

>  <Rank>  (1) 
1

>  <Conformer_Index>  (1) 
0

$$$$
LT-9
     RDKit          3D

 25 28  0  0  0  0  0  0  0  0999 V2000
    5.0081   -0.7999   -2.3235 O   0  0  0  0  0  0  0  0  0  0  0  0
    4.2528   -0.4956   -1.3603 C   0  0  0  0  0  0  0  0  0  0  0  0
    2.8895   -0.7829   -1.4437 C   0  0  0  0  0  0  0  0  0  0  0  0
    2.0352   -0.4545   -0.3790 C   0  0  0  0  0  0  0  0  0  0  0  0
    0.5857   -0.7661   -0.4594 C   0  0  0  0  0  0  0  0  0  0  0  0
   -0.1279   -0.5598   -1.6536 C   0  0  0  0  0  0  0  0  0  0  0  0
   -1.4932   -0.8503   -1.7230 C   0  0  0  0  0  0  0  0  0  0  0  0
   -2.1672   -1.3611   -0.6037 C   0  0  0  0  0  0  0  0  0  0  0  0
   -3.6451   -1.6360   -0.6673 C   0  0  0  0  0  0  0  0  0  0  0  0
   -4.4196   -0.4059   -0.2793 C   0  0  0  0  0  0  0  0  0  0  0  0
   -4.7760    0.5435   -1.2518 C   0  0  0  0  0  0  0  0  0  0  0  0
   -5.4641    1.7040   -0.8842 C   0  0  0  0  0  0  0  0  0  0  0  0
   -5.7932    1.9290    0.4557 C   0  0  0  0  0  0  0  0  0  0  0  0
   -6.4589    3.0556    0.8104 F   0  0  0  0  0  0  0  0  0  0  0  0
   -5.4311    0.9947    1.4305 C   0  0  0  0  0  0  0  0  0  0  0  0
   -4.7430   -0.1670    1.0670 C   0  0  0  0  0  0  0  0  0  0  0  0
   -1.4613   -1.5573    0.5926 C   0  0  0  0  0  0  0  0  0  0  0  0
   -0.0962   -1.2660    0.6634 C   0  0  0  0  0  0  0  0  0  0  0  0
    2.5491    0.1474    0.7351 N   0  0  0  0  0  0  0  0  0  0  0  0
    3.8772    0.4423    0.8469 C   0  0  0  0  0  0  0  0  0  0  0  0
    4.3703    1.0647    2.0055 C   0  0  0  0  0  0  0  0  0  0  0  0
    5.7294    1.3669    2.1192 C   0  0  0  0  0  0  0  0  0  0  0  0
    6.6078    1.0525    1.0803 C   0  0  0  0  0  0  0  0  0  0  0  0
    6.1329    0.4343   -0.0794 C   0  0  0  0  0  0  0  0  0  0  0  0
    4.7658    0.1241   -0.2081 C   0  0  0  0  0  0  0  0  0  0  0  0
  1  2  2  0
  2  3  4  0
  3  4  4  0
  4  5  1  0
  5  6  4  0
  6  7  4  0
  7  8  4  0
  8  9  1  0
  9 10  1  0
 10 11  4  0
 11 12  4  0
 12 13  4  0
 13 14  1  0
 13 15  4  0
 15 16  4  0
  8 17  4  0
 17 18  4  0
  4 19  4  0
 19 20  4  0
 20 21  4  0
 21 22  4  0
 22 23  4  0
 23 24  4  0
 24 25  4  0
 16 10  4  0
 18  5  4  0
 25  2  4  0
 25 20  4  0
M  END
>  <SMILES>  (2) 
O=c3cc(c2ccc(Cc1ccc(F)cc1)cc2)[nH]c4ccccc34

>  <NumConformers>  (2) 
4

>  <EnergyUnits>  (2) 
RDKit_forcefield

>  <Total_Conformers>  (2) 
4

>  <Energy>  (2) 
54.128363566200463

>  <Energy_Unit>  (2) 
RDKit_forcefield

>  <Rank>  (2) 
2

>  <Conformer_Index>  (2) 
1

$$$$
LT-9
     RDKit          3D

 25 28  0  0  0  0  0  0  0  0999 V2000
    3.8184    0.9838    3.2041 O   0  0  0  0  0  0  0  0  0  0  0  0
    3.5576    0.5988    2.0317 C   0  0  0  0  0  0  0  0  0  0  0  0
    2.2463    0.2528    1.7018 C   0  0  0  0  0  0  0  0  0  0  0  0
    1.9378   -0.1742    0.4003 C   0  0  0  0  0  0  0  0  0  0  0  0
    0.5428   -0.5344    0.0415 C   0  0  0  0  0  0  0  0  0  0  0  0
    0.0052   -0.1426   -1.1967 C   0  0  0  0  0  0  0  0  0  0  0  0
   -1.3076   -0.4790   -1.5384 C   0  0  0  0  0  0  0  0  0  0  0  0
   -2.1027   -1.2219   -0.6530 C   0  0  0  0  0  0  0  0  0  0  0  0
   -3.5284   -1.5494   -1.0048 C   0  0  0  0  0  0  0  0  0  0  0  0
   -4.4444   -0.4517   -0.5364 C   0  0  0  0  0  0  0  0  0  0  0  0
   -4.9857   -0.4847    0.7598 C   0  0  0  0  0  0  0  0  0  0  0  0
   -5.8077    0.5545    1.2065 C   0  0  0  0  0  0  0  0  0  0  0  0
   -6.0880    1.6368    0.3671 C   0  0  0  0  0  0  0  0  0  0  0  0
   -6.8838    2.6442    0.8027 F   0  0  0  0  0  0  0  0  0  0  0  0
   -5.5431    1.6825   -0.9195 C   0  0  0  0  0  0  0  0  0  0  0  0
   -4.7206    0.6452   -1.3699 C   0  0  0  0  0  0  0  0  0  0  0  0
   -1.5736   -1.6057    0.5883 C   0  0  0  0  0  0  0  0  0  0  0  0
   -0.2613   -1.2689    0.9315 C   0  0  0  0  0  0  0  0  0  0  0  0
    2.9300   -0.2476   -0.5367 N   0  0  0  0  0  0  0  0  0  0  0  0
    4.2221    0.0828   -0.2453 C   0  0  0  0  0  0  0  0  0  0  0  0
    5.2171   -0.0082   -1.2325 C   0  0  0  0  0  0  0  0  0  0  0  0
    6.5393    0.3294   -0.9336 C   0  0  0  0  0  0  0  0  0  0  0  0
    6.8811    0.7594    0.3501 C   0  0  0  0  0  0  0  0  0  0  0  0
    5.9031    0.8543    1.3438 C   0  0  0  0  0  0  0  0  0  0  0  0
    4.5667    0.5171    1.0572 C   0  0  0  0  0  0  0  0  0  0  0  0
  1  2  2  0
  2  3  4  0
  3  4  4  0
  4  5  1  0
  5  6  4  0
  6  7  4  0
  7  8  4  0
  8  9  1  0
  9 10  1  0
 10 11  4  0
 11 12  4  0
 12 13  4  0
 13 14  1  0
 13 15  4  0
 15 16  4  0
  8 17  4  0
 17 18  4  0
  4 19  4  0
 19 20  4  0
 20 21  4  0
 21 22  4  0
 22 23  4  0
 23 24  4  0
 24 25  4  0
 16 10  4  0
 18  5  4  0
 25  2  4  0
 25 20  4  0
M  END
>  <SMILES>  (3) 
O=c3cc(c2ccc(Cc1ccc(F)cc1)cc2)[nH]c4ccccc34

>  <NumConformers>  (3) 
4

>  <EnergyUnits>  (3) 
RDKit_forcefield

>  <Total_Conformers>  (3) 
4

>  <Energy>  (3) 
54.129940893152259

>  <Energy_Unit>  (3) 
RDKit_forcefield

>  <Rank>  (3) 
3

>  <Conformer_Index>  (3) 
2

$$$$
LT-9
     RDKit          3D

 25 28  0  0  0  0  0  0  0  0999 V2000
    3.9227    3.1803    0.5104 O   0  0  0  0  0  0  0  0  0  0  0  0
    3.6225    1.9650    0.3562 C   0  0  0  0  0  0  0  0  0  0  0  0
    2.3114    1.6220    0.0226 C   0  0  0  0  0  0  0  0  0  0  0  0
    1.9591    0.2737   -0.1490 C   0  0  0  0  0  0  0  0  0  0  0  0
    0.5636   -0.0973   -0.4946 C   0  0  0  0  0  0  0  0  0  0  0  0
   -0.0455   -1.2095    0.1117 C   0  0  0  0  0  0  0  0  0  0  0  0
   -1.3590   -1.5621   -0.2101 C   0  0  0  0  0  0  0  0  0  0  0  0
   -2.0833   -0.8155   -1.1514 C   0  0  0  0  0  0  0  0  0  0  0  0
   -3.5104   -1.1719   -1.4678 C   0  0  0  0  0  0  0  0  0  0  0  0
   -4.4447   -0.4570   -0.5299 C   0  0  0  0  0  0  0  0  0  0  0  0
   -4.8007   -1.0406    0.6977 C   0  0  0  0  0  0  0  0  0  0  0  0
   -5.6401   -0.3591    1.5844 C   0  0  0  0  0  0  0  0  0  0  0  0
   -6.1224    0.9115    1.2566 C   0  0  0  0  0  0  0  0  0  0  0  0
   -6.9348    1.5714    2.1184 F   0  0  0  0  0  0  0  0  0  0  0  0
   -5.7626    1.5036    0.0425 C   0  0  0  0  0  0  0  0  0  0  0  0
   -4.9234    0.8254   -0.8469 C   0  0  0  0  0  0  0  0  0  0  0  0
   -1.4830    0.3017   -1.7509 C   0  0  0  0  0  0  0  0  0  0  0  0
   -0.1698    0.6558   -1.4290 C   0  0  0  0  0  0  0  0  0  0  0  0
    2.9087   -0.6957    0.0129 N   0  0  0  0  0  0  0  0  0  0  0  0
    4.1995   -0.3928    0.3379 C   0  0  0  0  0  0  0  0  0  0  0  0
    5.1503   -1.4150    0.4928 C   0  0  0  0  0  0  0  0  0  0  0  0
    6.4712   -1.1044    0.8249 C   0  0  0  0  0  0  0  0  0  0  0  0
    6.8557    0.2258    1.0046 C   0  0  0  0  0  0  0  0  0  0  0  0
    5.9222    1.2545    0.8530 C   0  0  0  0  0  0  0  0  0  0  0  0
    4.5876    0.9566    0.5183 C   0  0  0  0  0  0  0  0  0  0  0  0
  1  2  2  0
  2  3  4  0
  3  4  4  0
  4  5  1  0
  5  6  4  0
  6  7  4  0
  7  8  4  0
  8  9  1  0
  9 10  1  0
 10 11  4  0
 11 12  4  0
 12 13  4  0
 13 14  1  0
 13 15  4  0
 15 16  4  0
  8 17  4  0
 17 18  4  0
  4 19  4  0
 19 20  4  0
 20 21  4  0
 21 22  4  0
 22 23  4  0
 23 24  4  0
 24 25  4  0
 16 10  4  0
 18  5  4  0
 25  2  4  0
 25 20  4  0
M  END
>  <SMILES>  (4) 
O=c3cc(c2ccc(Cc1ccc(F)cc1)cc2)[nH]c4ccccc34

>  <NumConformers>  (4) 
4

>  <EnergyUnits>  (4) 
RDKit_forcefield

>  <Total_Conformers>  (4) 
4

>  <Energy>  (4) 
54.129940894078899

>  <Energy_Unit>  (4) 
RDKit_forcefield

>  <Rank>  (4) 
4

>  <Conformer_Index>  (4) 
3

$$$$
