MTD-403
     RDKit          3D

 26 29  0  0  0  0  0  0  0  0999 V2000
   -2.1035   -2.8342    0.1424 C   0  0  0  0  0  0  0  0  0  0  0  0
   -2.8771   -1.5393    0.0278 C   0  0  0  0  0  0  0  0  0  0  0  0
   -2.2153   -0.2995   -0.1442 C   0  0  0  0  0  0  0  0  0  0  0  0
   -0.7375   -0.2023   -0.1755 C   0  0  0  0  0  0  0  0  0  0  0  0
   -0.0952    0.3422   -1.2970 C   0  0  0  0  0  0  0  0  0  0  0  0
    1.2976    0.4546   -1.3273 C   0  0  0  0  0  0  0  0  0  0  0  0
    2.0689    0.0311   -0.2318 C   0  0  0  0  0  0  0  0  0  0  0  0
    3.5042    0.1459   -0.2552 N   0  0  0  0  0  0  0  0  0  0  0  0
    4.3367   -1.0453   -0.0419 C   0  0  0  0  0  0  0  0  0  0  0  0
    5.5732   -0.6844    0.7854 C   0  0  0  0  0  0  0  0  0  0  0  0
    6.3177    0.5005    0.1605 C   0  0  0  0  0  0  0  0  0  0  0  0
    5.3874    1.7092    0.0099 C   0  0  0  0  0  0  0  0  0  0  0  0
    4.1444    1.3464   -0.8088 C   0  0  0  0  0  0  0  0  0  0  0  0
    1.4224   -0.4963    0.8971 C   0  0  0  0  0  0  0  0  0  0  0  0
    0.0298   -0.6078    0.9276 C   0  0  0  0  0  0  0  0  0  0  0  0
   -2.9441    0.8437   -0.2917 N   0  0  0  0  0  0  0  0  0  0  0  0
   -4.3054    0.8500   -0.2389 C   0  0  0  0  0  0  0  0  0  0  0  0
   -5.0075    2.0574   -0.3869 C   0  0  0  0  0  0  0  0  0  0  0  0
   -6.4012    2.0761   -0.3229 C   0  0  0  0  0  0  0  0  0  0  0  0
   -7.0700    3.2467   -0.4669 F   0  0  0  0  0  0  0  0  0  0  0  0
   -7.1072    0.8923   -0.1095 C   0  0  0  0  0  0  0  0  0  0  0  0
   -6.4271   -0.3197    0.0403 C   0  0  0  0  0  0  0  0  0  0  0  0
   -7.1563   -1.4466    0.2445 F   0  0  0  0  0  0  0  0  0  0  0  0
   -5.0145   -0.3553   -0.0239 C   0  0  0  0  0  0  0  0  0  0  0  0
   -4.2837   -1.5529    0.1154 C   0  0  0  0  0  0  0  0  0  0  0  0
   -4.8850   -2.6443    0.3173 O   0  0  0  0  0  0  0  0  0  0  0  0
  1  2  1  0
  2  3  4  0
  3  4  1  0
  4  5  4  0
  5  6  4  0
  6  7  4  0
  7  8  1  0
  8  9  1  0
  9 10  1  0
 10 11  1  0
 11 12  1  0
 12 13  1  0
  7 14  4  0
 14 15  4  0
  3 16  4  0
 16 17  4  0
 17 18  4  0
 18 19  4  0
 19 20  1  0
 19 21  4  0
 21 22  4  0
 22 23  1  0
 22 24  4  0
 24 25  4  0
 25 26  2  0
 13  8  1  0
 15  4  4  0
 24 17  4  0
 25  2  4  0
M  END
>  <SMILES>  (1) 
Cc4c(c2ccc(N1CCCCC1)cc2)[nH]c3cc(F)cc(F)c3c4=O

>  <NumConformers>  (1) 
8

>  <EnergyUnits>  (1) 
RDKit_forcefield

>  <Processing_Time>  (1) 
32.1s

>  <Original_Conformers>  (1) 
500

>  <Total_Conformers>  (1) 
8

>  <Energy>  (1) 
63.215750696082061

>  <Energy_Unit>  (1) 
RDKit_forcefield

>  <Rank>  (1) 
1

>  <Conformer_Index>  (1) 
0

$$$$
MTD-403
     RDKit          3D

 26 29  0  0  0  0  0  0  0  0999 V2000
   -2.0995   -2.8457   -0.1340 C   0  0  0  0  0  0  0  0  0  0  0  0
   -2.8745   -1.5466   -0.1499 C   0  0  0  0  0  0  0  0  0  0  0  0
   -2.2165   -0.2961   -0.0619 C   0  0  0  0  0  0  0  0  0  0  0  0
   -0.7401   -0.1949    0.0045 C   0  0  0  0  0  0  0  0  0  0  0  0
    0.0586   -0.6894   -1.0382 C   0  0  0  0  0  0  0  0  0  0  0  0
    1.4500   -0.5741   -0.9762 C   0  0  0  0  0  0  0  0  0  0  0  0
    2.0636    0.0459    0.1236 C   0  0  0  0  0  0  0  0  0  0  0  0
    3.4979    0.1640    0.1794 N   0  0  0  0  0  0  0  0  0  0  0  0
    4.3347   -1.0399    0.0901 C   0  0  0  0  0  0  0  0  0  0  0  0
    5.5954   -0.7472   -0.7277 C   0  0  0  0  0  0  0  0  0  0  0  0
    6.3227    0.4863   -0.1816 C   0  0  0  0  0  0  0  0  0  0  0  0
    5.3899    1.7022   -0.1591 C   0  0  0  0  0  0  0  0  0  0  0  0
    4.1230    1.4070    0.6501 C   0  0  0  0  0  0  0  0  0  0  0  0
    1.2611    0.5578    1.1571 C   0  0  0  0  0  0  0  0  0  0  0  0
   -0.1304    0.4416    1.0954 C   0  0  0  0  0  0  0  0  0  0  0  0
   -2.9480    0.8545   -0.0311 N   0  0  0  0  0  0  0  0  0  0  0  0
   -4.3071    0.8548   -0.1242 C   0  0  0  0  0  0  0  0  0  0  0  0
   -5.0117    2.0694   -0.0974 C   0  0  0  0  0  0  0  0  0  0  0  0
   -6.4029    2.0811   -0.2036 C   0  0  0  0  0  0  0  0  0  0  0  0
   -7.0743    3.2588   -0.1768 F   0  0  0  0  0  0  0  0  0  0  0  0
   -7.1038    0.8828   -0.3387 C   0  0  0  0  0  0  0  0  0  0  0  0
   -6.4211   -0.3366   -0.3676 C   0  0  0  0  0  0  0  0  0  0  0  0
   -7.1454   -1.4775   -0.4989 F   0  0  0  0  0  0  0  0  0  0  0  0
   -5.0110   -0.3651   -0.2592 C   0  0  0  0  0  0  0  0  0  0  0  0
   -4.2779   -1.5692   -0.2772 C   0  0  0  0  0  0  0  0  0  0  0  0
   -4.8743   -2.6743   -0.4055 O   0  0  0  0  0  0  0  0  0  0  0  0
  1  2  1  0
  2  3  4  0
  3  4  1  0
  4  5  4  0
  5  6  4  0
  6  7  4  0
  7  8  1  0
  8  9  1  0
  9 10  1  0
 10 11  1  0
 11 12  1  0
 12 13  1  0
  7 14  4  0
 14 15  4  0
  3 16  4  0
 16 17  4  0
 17 18  4  0
 18 19  4  0
 19 20  1  0
 19 21  4  0
 21 22  4  0
 22 23  1  0
 22 24  4  0
 24 25  4  0
 25 26  2  0
 13  8  1  0
 15  4  4  0
 24 17  4  0
 25  2  4  0
M  END
>  <SMILES>  (2) 
Cc4c(c2ccc(N1CCCCC1)cc2)[nH]c3cc(F)cc(F)c3c4=O

>  <NumConformers>  (2) 
8

>  <EnergyUnits>  (2) 
RDKit_forcefield

>  <Processing_Time>  (2) 
32.1s

>  <Original_Conformers>  (2) 
500

>  <Total_Conformers>  (2) 
8

>  <Energy>  (2) 
63.215750696337693

>  <Energy_Unit>  (2) 
RDKit_forcefield

>  <Rank>  (2) 
2

>  <Conformer_Index>  (2) 
1

$$$$
MTD-403
     RDKit          3D

 26 29  0  0  0  0  0  0  0  0999 V2000
   -2.0783   -2.8311   -0.1154 C   0  0  0  0  0  0  0  0  0  0  0  0
   -2.8651   -1.5391   -0.1292 C   0  0  0  0  0  0  0  0  0  0  0  0
   -2.2150   -0.2815   -0.1149 C   0  0  0  0  0  0  0  0  0  0  0  0
   -0.7400   -0.1670   -0.0406 C   0  0  0  0  0  0  0  0  0  0  0  0
   -0.0385    0.5081   -1.0500 C   0  0  0  0  0  0  0  0  0  0  0  0
    1.3513    0.6365   -0.9786 C   0  0  0  0  0  0  0  0  0  0  0  0
    2.0597    0.1019    0.1092 C   0  0  0  0  0  0  0  0  0  0  0  0
    3.4923    0.2336    0.1746 N   0  0  0  0  0  0  0  0  0  0  0  0
    4.3214   -0.8941    0.6198 C   0  0  0  0  0  0  0  0  0  0  0  0
    5.6239   -0.9440   -0.1853 C   0  0  0  0  0  0  0  0  0  0  0  0
    6.3318    0.4152   -0.1690 C   0  0  0  0  0  0  0  0  0  0  0  0
    5.4039    1.5181   -0.6903 C   0  0  0  0  0  0  0  0  0  0  0  0
    4.1080    1.5662    0.1233 C   0  0  0  0  0  0  0  0  0  0  0  0
    1.3540   -0.5628    1.1261 C   0  0  0  0  0  0  0  0  0  0  0  0
   -0.0359   -0.6902    1.0550 C   0  0  0  0  0  0  0  0  0  0  0  0
   -2.9525    0.8640   -0.1762 N   0  0  0  0  0  0  0  0  0  0  0  0
   -4.3143    0.8511   -0.2098 C   0  0  0  0  0  0  0  0  0  0  0  0
   -5.0262    2.0606   -0.2625 C   0  0  0  0  0  0  0  0  0  0  0  0
   -6.4213    2.0584   -0.2857 C   0  0  0  0  0  0  0  0  0  0  0  0
   -7.0997    3.2312   -0.3364 F   0  0  0  0  0  0  0  0  0  0  0  0
   -7.1191    0.8510   -0.2553 C   0  0  0  0  0  0  0  0  0  0  0  0
   -6.4292   -0.3635   -0.2028 C   0  0  0  0  0  0  0  0  0  0  0  0
   -7.1505   -1.5135   -0.1764 F   0  0  0  0  0  0  0  0  0  0  0  0
   -5.0149   -0.3779   -0.1806 C   0  0  0  0  0  0  0  0  0  0  0  0
   -4.2740   -1.5764   -0.1336 C   0  0  0  0  0  0  0  0  0  0  0  0
   -4.8681   -2.6896   -0.0974 O   0  0  0  0  0  0  0  0  0  0  0  0
  1  2  1  0
  2  3  4  0
  3  4  1  0
  4  5  4  0
  5  6  4  0
  6  7  4  0
  7  8  1  0
  8  9  1  0
  9 10  1  0
 10 11  1  0
 11 12  1  0
 12 13  1  0
  7 14  4  0
 14 15  4  0
  3 16  4  0
 16 17  4  0
 17 18  4  0
 18 19  4  0
 19 20  1  0
 19 21  4  0
 21 22  4  0
 22 23  1  0
 22 24  4  0
 24 25  4  0
 25 26  2  0
 13  8  1  0
 15  4  4  0
 24 17  4  0
 25  2  4  0
M  END
>  <SMILES>  (3) 
Cc4c(c2ccc(N1CCCCC1)cc2)[nH]c3cc(F)cc(F)c3c4=O

>  <NumConformers>  (3) 
8

>  <EnergyUnits>  (3) 
RDKit_forcefield

>  <Processing_Time>  (3) 
32.1s

>  <Original_Conformers>  (3) 
500

>  <Total_Conformers>  (3) 
8

>  <Energy>  (3) 
63.221200906265629

>  <Energy_Unit>  (3) 
RDKit_forcefield

>  <Rank>  (3) 
3

>  <Conformer_Index>  (3) 
2

$$$$
MTD-403
     RDKit          3D

 26 29  0  0  0  0  0  0  0  0999 V2000
   -2.0753   -2.8203   -0.3563 C   0  0  0  0  0  0  0  0  0  0  0  0
   -2.8636   -1.5339   -0.2473 C   0  0  0  0  0  0  0  0  0  0  0  0
   -2.2148   -0.2807   -0.1327 C   0  0  0  0  0  0  0  0  0  0  0  0
   -0.7385   -0.1617   -0.1588 C   0  0  0  0  0  0  0  0  0  0  0  0
   -0.0638    0.4198    0.9245 C   0  0  0  0  0  0  0  0  0  0  0  0
    1.3273    0.5524    0.9003 C   0  0  0  0  0  0  0  0  0  0  0  0
    2.0638    0.1163   -0.2124 C   0  0  0  0  0  0  0  0  0  0  0  0
    3.4975    0.2516   -0.2292 N   0  0  0  0  0  0  0  0  0  0  0  0
    4.3390   -0.8327   -0.7520 C   0  0  0  0  0  0  0  0  0  0  0  0
    5.6205   -0.9558    0.0784 C   0  0  0  0  0  0  0  0  0  0  0  0
    6.3270    0.3987    0.2017 C   0  0  0  0  0  0  0  0  0  0  0  0
    5.3849    1.4517    0.7954 C   0  0  0  0  0  0  0  0  0  0  0  0
    4.1101    1.5737   -0.0434 C   0  0  0  0  0  0  0  0  0  0  0  0
    1.3851   -0.4541   -1.3023 C   0  0  0  0  0  0  0  0  0  0  0  0
   -0.0060   -0.5858   -1.2784 C   0  0  0  0  0  0  0  0  0  0  0  0
   -2.9549    0.8556    0.0118 N   0  0  0  0  0  0  0  0  0  0  0  0
   -4.3171    0.8413    0.0093 C   0  0  0  0  0  0  0  0  0  0  0  0
   -5.0315    2.0421    0.1516 C   0  0  0  0  0  0  0  0  0  0  0  0
   -6.4267    2.0394    0.1388 C   0  0  0  0  0  0  0  0  0  0  0  0
   -7.1075    3.2038    0.2767 F   0  0  0  0  0  0  0  0  0  0  0  0
   -7.1221    0.8404   -0.0171 C   0  0  0  0  0  0  0  0  0  0  0  0
   -6.4298   -0.3654   -0.1602 C   0  0  0  0  0  0  0  0  0  0  0  0
   -7.1488   -1.5076   -0.3075 F   0  0  0  0  0  0  0  0  0  0  0  0
   -5.0153   -0.3794   -0.1474 C   0  0  0  0  0  0  0  0  0  0  0  0
   -4.2721   -1.5697   -0.2822 C   0  0  0  0  0  0  0  0  0  0  0  0
   -4.8638   -2.6746   -0.4329 O   0  0  0  0  0  0  0  0  0  0  0  0
  1  2  1  0
  2  3  4  0
  3  4  1  0
  4  5  4  0
  5  6  4  0
  6  7  4  0
  7  8  1  0
  8  9  1  0
  9 10  1  0
 10 11  1  0
 11 12  1  0
 12 13  1  0
  7 14  4  0
 14 15  4  0
  3 16  4  0
 16 17  4  0
 17 18  4  0
 18 19  4  0
 19 20  1  0
 19 21  4  0
 21 22  4  0
 22 23  1  0
 22 24  4  0
 24 25  4  0
 25 26  2  0
 13  8  1  0
 15  4  4  0
 24 17  4  0
 25  2  4  0
M  END
>  <SMILES>  (4) 
Cc4c(c2ccc(N1CCCCC1)cc2)[nH]c3cc(F)cc(F)c3c4=O

>  <NumConformers>  (4) 
8

>  <EnergyUnits>  (4) 
RDKit_forcefield

>  <Processing_Time>  (4) 
32.1s

>  <Original_Conformers>  (4) 
500

>  <Total_Conformers>  (4) 
8

>  <Energy>  (4) 
63.221200907666429

>  <Energy_Unit>  (4) 
RDKit_forcefield

>  <Rank>  (4) 
4

>  <Conformer_Index>  (4) 
3

$$$$
MTD-403
     RDKit          3D

 26 29  0  0  0  0  0  0  0  0999 V2000
   -2.1744   -2.8094    0.4708 C   0  0  0  0  0  0  0  0  0  0  0  0
   -2.9126   -1.5203    0.1852 C   0  0  0  0  0  0  0  0  0  0  0  0
   -2.2160   -0.3157   -0.0756 C   0  0  0  0  0  0  0  0  0  0  0  0
   -0.7367   -0.2467   -0.0380 C   0  0  0  0  0  0  0  0  0  0  0  0
   -0.0361   -0.5479    1.1402 C   0  0  0  0  0  0  0  0  0  0  0  0
    1.3585   -0.4624    1.1729 C   0  0  0  0  0  0  0  0  0  0  0  0
    2.0732   -0.0662    0.0299 C   0  0  0  0  0  0  0  0  0  0  0  0
    3.5101    0.0266    0.0571 N   0  0  0  0  0  0  0  0  0  0  0  0
    4.3103   -0.7341   -0.9118 C   0  0  0  0  0  0  0  0  0  0  0  0
    5.5166    0.0923   -1.3650 C   0  0  0  0  0  0  0  0  0  0  0  0
    6.3092    0.6038   -0.1571 C   0  0  0  0  0  0  0  0  0  0  0  0
    5.4089    1.4170    0.7794 C   0  0  0  0  0  0  0  0  0  0  0  0
    4.1957    0.5946    1.2253 C   0  0  0  0  0  0  0  0  0  0  0  0
    1.3685    0.2524   -1.1416 C   0  0  0  0  0  0  0  0  0  0  0  0
   -0.0262    0.1675   -1.1739 C   0  0  0  0  0  0  0  0  0  0  0  0
   -2.9111    0.8185   -0.3760 N   0  0  0  0  0  0  0  0  0  0  0  0
   -4.2728    0.8527   -0.3964 C   0  0  0  0  0  0  0  0  0  0  0  0
   -4.9399    2.0502   -0.7024 C   0  0  0  0  0  0  0  0  0  0  0  0
   -6.3343    2.0984   -0.7147 C   0  0  0  0  0  0  0  0  0  0  0  0
   -6.9692    3.2592   -1.0112 F   0  0  0  0  0  0  0  0  0  0  0  0
   -7.0760    0.9543   -0.4208 C   0  0  0  0  0  0  0  0  0  0  0  0
   -6.4311   -0.2472   -0.1137 C   0  0  0  0  0  0  0  0  0  0  0  0
   -7.1943   -1.3352    0.1640 F   0  0  0  0  0  0  0  0  0  0  0  0
   -5.0182   -0.3126   -0.0990 C   0  0  0  0  0  0  0  0  0  0  0  0
   -4.3218   -1.5017    0.1989 C   0  0  0  0  0  0  0  0  0  0  0  0
   -4.9563   -2.5568    0.4777 O   0  0  0  0  0  0  0  0  0  0  0  0
  1  2  1  0
  2  3  4  0
  3  4  1  0
  4  5  4  0
  5  6  4  0
  6  7  4  0
  7  8  1  0
  8  9  1  0
  9 10  1  0
 10 11  1  0
 11 12  1  0
 12 13  1  0
  7 14  4  0
 14 15  4  0
  3 16  4  0
 16 17  4  0
 17 18  4  0
 18 19  4  0
 19 20  1  0
 19 21  4  0
 21 22  4  0
 22 23  1  0
 22 24  4  0
 24 25  4  0
 25 26  2  0
 13  8  1  0
 15  4  4  0
 24 17  4  0
 25  2  4  0
M  END
>  <SMILES>  (5) 
Cc4c(c2ccc(N1CCCCC1)cc2)[nH]c3cc(F)cc(F)c3c4=O

>  <NumConformers>  (5) 
8

>  <EnergyUnits>  (5) 
RDKit_forcefield

>  <Processing_Time>  (5) 
32.1s

>  <Original_Conformers>  (5) 
500

>  <Total_Conformers>  (5) 
8

>  <Energy>  (5) 
63.229286595301467

>  <Energy_Unit>  (5) 
RDKit_forcefield

>  <Rank>  (5) 
5

>  <Conformer_Index>  (5) 
4

$$$$
MTD-403
     RDKit          3D

 26 29  0  0  0  0  0  0  0  0999 V2000
   -2.1783   -2.7630    0.6574 C   0  0  0  0  0  0  0  0  0  0  0  0
   -2.9145   -1.4974    0.2774 C   0  0  0  0  0  0  0  0  0  0  0  0
   -2.2170   -0.3041   -0.0287 C   0  0  0  0  0  0  0  0  0  0  0  0
   -0.7368   -0.2462   -0.0360 C   0  0  0  0  0  0  0  0  0  0  0  0
    0.0067   -1.0569   -0.9077 C   0  0  0  0  0  0  0  0  0  0  0  0
    1.4022   -0.9830   -0.9219 C   0  0  0  0  0  0  0  0  0  0  0  0
    2.0753   -0.0911   -0.0701 C   0  0  0  0  0  0  0  0  0  0  0  0
    3.5130   -0.0077   -0.0810 N   0  0  0  0  0  0  0  0  0  0  0  0
    4.2494   -0.0457   -1.3513 C   0  0  0  0  0  0  0  0  0  0  0  0
    5.4522    0.9016   -1.2948 C   0  0  0  0  0  0  0  0  0  0  0  0
    6.3070    0.6299   -0.0520 C   0  0  0  0  0  0  0  0  0  0  0  0
    5.4626    0.7354    1.2226 C   0  0  0  0  0  0  0  0  0  0  0  0
    4.2670   -0.2188    1.1618 C   0  0  0  0  0  0  0  0  0  0  0  0
    1.3282    0.7318    0.7875 C   0  0  0  0  0  0  0  0  0  0  0  0
   -0.0674    0.6583    0.8010 C   0  0  0  0  0  0  0  0  0  0  0  0
   -2.9123    0.8320   -0.3214 N   0  0  0  0  0  0  0  0  0  0  0  0
   -4.2733    0.8585   -0.3730 C   0  0  0  0  0  0  0  0  0  0  0  0
   -4.9402    2.0535   -0.6893 C   0  0  0  0  0  0  0  0  0  0  0  0
   -6.3334    2.0882   -0.7558 C   0  0  0  0  0  0  0  0  0  0  0  0
   -6.9681    3.2466   -1.0621 F   0  0  0  0  0  0  0  0  0  0  0  0
   -7.0742    0.9324   -0.5090 C   0  0  0  0  0  0  0  0  0  0  0  0
   -6.4295   -0.2668   -0.1926 C   0  0  0  0  0  0  0  0  0  0  0  0
   -7.1917   -1.3657    0.0413 F   0  0  0  0  0  0  0  0  0  0  0  0
   -5.0177   -0.3177   -0.1195 C   0  0  0  0  0  0  0  0  0  0  0  0
   -4.3218   -1.5011    0.2012 C   0  0  0  0  0  0  0  0  0  0  0  0
   -4.9552   -2.5701    0.4239 O   0  0  0  0  0  0  0  0  0  0  0  0
  1  2  1  0
  2  3  4  0
  3  4  1  0
  4  5  4  0
  5  6  4  0
  6  7  4  0
  7  8  1  0
  8  9  1  0
  9 10  1  0
 10 11  1  0
 11 12  1  0
 12 13  1  0
  7 14  4  0
 14 15  4  0
  3 16  4  0
 16 17  4  0
 17 18  4  0
 18 19  4  0
 19 20  1  0
 19 21  4  0
 21 22  4  0
 22 23  1  0
 22 24  4  0
 24 25  4  0
 25 26  2  0
 13  8  1  0
 15  4  4  0
 24 17  4  0
 25  2  4  0
M  END
>  <SMILES>  (6) 
Cc4c(c2ccc(N1CCCCC1)cc2)[nH]c3cc(F)cc(F)c3c4=O

>  <NumConformers>  (6) 
8

>  <EnergyUnits>  (6) 
RDKit_forcefield

>  <Processing_Time>  (6) 
32.1s

>  <Original_Conformers>  (6) 
500

>  <Total_Conformers>  (6) 
8

>  <Energy>  (6) 
63.229286608566355

>  <Energy_Unit>  (6) 
RDKit_forcefield

>  <Rank>  (6) 
6

>  <Conformer_Index>  (6) 
5

$$$$
MTD-403
     RDKit          3D

 26 29  0  0  0  0  0  0  0  0999 V2000
   -2.0226   -2.7041    0.6357 C   0  0  0  0  0  0  0  0  0  0  0  0
   -2.8370   -1.4855    0.2615 C   0  0  0  0  0  0  0  0  0  0  0  0
   -2.2167   -0.2459   -0.0263 C   0  0  0  0  0  0  0  0  0  0  0  0
   -0.7435   -0.0911   -0.0196 C   0  0  0  0  0  0  0  0  0  0  0  0
   -0.1418    0.8450    0.8340 C   0  0  0  0  0  0  0  0  0  0  0  0
    1.2461    1.0098    0.8344 C   0  0  0  0  0  0  0  0  0  0  0  0
    2.0524    0.2496   -0.0293 C   0  0  0  0  0  0  0  0  0  0  0  0
    3.4832    0.4121   -0.0315 N   0  0  0  0  0  0  0  0  0  0  0  0
    4.1784    0.7618   -1.2773 C   0  0  0  0  0  0  0  0  0  0  0  0
    5.5175    0.0246   -1.3595 C   0  0  0  0  0  0  0  0  0  0  0  0
    6.3444    0.2573   -0.0902 C   0  0  0  0  0  0  0  0  0  0  0  0
    5.5600   -0.1686    1.1558 C   0  0  0  0  0  0  0  0  0  0  0  0
    4.2150    0.5608    1.2334 C   0  0  0  0  0  0  0  0  0  0  0  0
    1.4467   -0.6770   -0.8926 C   0  0  0  0  0  0  0  0  0  0  0  0
    0.0590   -0.8422   -0.8924 C   0  0  0  0  0  0  0  0  0  0  0  0
   -2.9824    0.8453   -0.3139 N   0  0  0  0  0  0  0  0  0  0  0  0
   -4.3418    0.7832   -0.3775 C   0  0  0  0  0  0  0  0  0  0  0  0
   -5.0829    1.9352   -0.6879 C   0  0  0  0  0  0  0  0  0  0  0  0
   -6.4748    1.8793   -0.7667 C   0  0  0  0  0  0  0  0  0  0  0  0
   -7.1815    2.9968   -1.0672 F   0  0  0  0  0  0  0  0  0  0  0  0
   -7.1403    0.6750   -0.5383 C   0  0  0  0  0  0  0  0  0  0  0  0
   -6.4210   -0.4827   -0.2281 C   0  0  0  0  0  0  0  0  0  0  0  0
   -7.1115   -1.6316   -0.0121 F   0  0  0  0  0  0  0  0  0  0  0  0
   -5.0096   -0.4419   -0.1427 C   0  0  0  0  0  0  0  0  0  0  0  0
   -4.2404   -1.5805    0.1725 C   0  0  0  0  0  0  0  0  0  0  0  0
   -4.8041   -2.6910    0.3788 O   0  0  0  0  0  0  0  0  0  0  0  0
  1  2  1  0
  2  3  4  0
  3  4  1  0
  4  5  4  0
  5  6  4  0
  6  7  4  0
  7  8  1  0
  8  9  1  0
  9 10  1  0
 10 11  1  0
 11 12  1  0
 12 13  1  0
  7 14  4  0
 14 15  4  0
  3 16  4  0
 16 17  4  0
 17 18  4  0
 18 19  4  0
 19 20  1  0
 19 21  4  0
 21 22  4  0
 22 23  1  0
 22 24  4  0
 24 25  4  0
 25 26  2  0
 13  8  1  0
 15  4  4  0
 24 17  4  0
 25  2  4  0
M  END
>  <SMILES>  (7) 
Cc4c(c2ccc(N1CCCCC1)cc2)[nH]c3cc(F)cc(F)c3c4=O

>  <NumConformers>  (7) 
8

>  <EnergyUnits>  (7) 
RDKit_forcefield

>  <Processing_Time>  (7) 
32.1s

>  <Original_Conformers>  (7) 
500

>  <Total_Conformers>  (7) 
8

>  <Energy>  (7) 
63.23360724176009

>  <Energy_Unit>  (7) 
RDKit_forcefield

>  <Rank>  (7) 
7

>  <Conformer_Index>  (7) 
6

$$$$
MTD-403
     RDKit          3D

 26 29  0  0  0  0  0  0  0  0999 V2000
   -2.0179   -2.7530    0.4356 C   0  0  0  0  0  0  0  0  0  0  0  0
   -2.8349   -1.5078    0.1702 C   0  0  0  0  0  0  0  0  0  0  0  0
   -2.2145   -0.2682   -0.1180 C   0  0  0  0  0  0  0  0  0  0  0  0
   -0.7409   -0.1180   -0.1300 C   0  0  0  0  0  0  0  0  0  0  0  0
   -0.0920    0.3263   -1.2911 C   0  0  0  0  0  0  0  0  0  0  0  0
    1.2963    0.4874   -1.3059 C   0  0  0  0  0  0  0  0  0  0  0  0
    2.0553    0.2191   -0.1544 C   0  0  0  0  0  0  0  0  0  0  0  0
    3.4863    0.3798   -0.1640 N   0  0  0  0  0  0  0  0  0  0  0  0
    4.1294    1.2713    0.8103 C   0  0  0  0  0  0  0  0  0  0  0  0
    5.4555    0.6693    1.2819 C   0  0  0  0  0  0  0  0  0  0  0  0
    6.3403    0.3003    0.0860 C   0  0  0  0  0  0  0  0  0  0  0  0
    5.6072   -0.6599   -0.8573 C   0  0  0  0  0  0  0  0  0  0  0  0
    4.2749   -0.0628   -1.3214 C   0  0  0  0  0  0  0  0  0  0  0  0
    1.4020   -0.2124    1.0108 C   0  0  0  0  0  0  0  0  0  0  0  0
    0.0140   -0.3742    1.0252 C   0  0  0  0  0  0  0  0  0  0  0  0
   -2.9804    0.8244   -0.3993 N   0  0  0  0  0  0  0  0  0  0  0  0
   -4.3419    0.7839   -0.3745 C   0  0  0  0  0  0  0  0  0  0  0  0
   -5.0835    1.9414   -0.6625 C   0  0  0  0  0  0  0  0  0  0  0  0
   -6.4781    1.9131   -0.6286 C   0  0  0  0  0  0  0  0  0  0  0  0
   -7.1852    3.0356   -0.9080 F   0  0  0  0  0  0  0  0  0  0  0  0
   -7.1457    0.7317   -0.3060 C   0  0  0  0  0  0  0  0  0  0  0  0
   -6.4260   -0.4310   -0.0161 C   0  0  0  0  0  0  0  0  0  0  0  0
   -7.1186   -1.5577    0.2909 F   0  0  0  0  0  0  0  0  0  0  0  0
   -5.0118   -0.4188   -0.0482 C   0  0  0  0  0  0  0  0  0  0  0  0
   -4.2417   -1.5663    0.2307 C   0  0  0  0  0  0  0  0  0  0  0  0
   -4.8078   -2.6531    0.5342 O   0  0  0  0  0  0  0  0  0  0  0  0
  1  2  1  0
  2  3  4  0
  3  4  1  0
  4  5  4  0
  5  6  4  0
  6  7  4  0
  7  8  1  0
  8  9  1  0
  9 10  1  0
 10 11  1  0
 11 12  1  0
 12 13  1  0
  7 14  4  0
 14 15  4  0
  3 16  4  0
 16 17  4  0
 17 18  4  0
 18 19  4  0
 19 20  1  0
 19 21  4  0
 21 22  4  0
 22 23  1  0
 22 24  4  0
 24 25  4  0
 25 26  2  0
 13  8  1  0
 15  4  4  0
 24 17  4  0
 25  2  4  0
M  END
>  <SMILES>  (8) 
Cc4c(c2ccc(N1CCCCC1)cc2)[nH]c3cc(F)cc(F)c3c4=O

>  <NumConformers>  (8) 
8

>  <EnergyUnits>  (8) 
RDKit_forcefield

>  <Processing_Time>  (8) 
32.1s

>  <Original_Conformers>  (8) 
500

>  <Total_Conformers>  (8) 
8

>  <Energy>  (8) 
63.233607247450863

>  <Energy_Unit>  (8) 
RDKit_forcefield

>  <Rank>  (8) 
8

>  <Conformer_Index>  (8) 
7

$$$$
