PG-128
     RDKit          3D

 28 31  0  0  0  0  0  0  0  0999 V2000
   -1.9418    2.5555   -1.1605 C   0  0  0  0  0  0  0  0  0  0  0  0
   -2.7037    1.3309   -0.7054 C   0  0  0  0  0  0  0  0  0  0  0  0
   -2.0339    0.1974   -0.1810 C   0  0  0  0  0  0  0  0  0  0  0  0
   -0.5563    0.1360   -0.0944 C   0  0  0  0  0  0  0  0  0  0  0  0
    0.2389    0.2423   -1.2428 C   0  0  0  0  0  0  0  0  0  0  0  0
    1.6286    0.1608   -1.1432 C   0  0  0  0  0  0  0  0  0  0  0  0
    2.2250   -0.0348    0.1152 C   0  0  0  0  0  0  0  0  0  0  0  0
    3.6987   -0.1320    0.2752 C   0  0  0  0  0  0  0  0  0  0  0  0
    4.5831    0.5179   -0.6042 C   0  0  0  0  0  0  0  0  0  0  0  0
    5.9626    0.4130   -0.4204 C   0  0  0  0  0  0  0  0  0  0  0  0
    6.4615   -0.3405    0.6489 C   0  0  0  0  0  0  0  0  0  0  0  0
    7.9412   -0.4612    0.8675 C   0  0  0  0  0  0  0  0  0  0  0  0
    8.2077   -1.2780    1.9526 F   0  0  0  0  0  0  0  0  0  0  0  0
    8.5354   -1.0045   -0.2570 F   0  0  0  0  0  0  0  0  0  0  0  0
    8.4785    0.7904    1.1068 F   0  0  0  0  0  0  0  0  0  0  0  0
    5.5933   -0.9530    1.4990 N   0  0  0  0  0  0  0  0  0  0  0  0
    4.2458   -0.8653    1.3423 C   0  0  0  0  0  0  0  0  0  0  0  0
    1.4255   -0.1611    1.2119 N   0  0  0  0  0  0  0  0  0  0  0  0
    0.0705   -0.0853    1.1379 C   0  0  0  0  0  0  0  0  0  0  0  0
   -2.7555   -0.8719    0.2645 N   0  0  0  0  0  0  0  0  0  0  0  0
   -4.1150   -0.9126    0.1872 C   0  0  0  0  0  0  0  0  0  0  0  0
   -4.8164   -2.0390    0.6486 C   0  0  0  0  0  0  0  0  0  0  0  0
   -6.2094   -2.0872    0.5599 C   0  0  0  0  0  0  0  0  0  0  0  0
   -6.9140   -1.0152    0.0100 C   0  0  0  0  0  0  0  0  0  0  0  0
   -6.2299    0.1117   -0.4531 C   0  0  0  0  0  0  0  0  0  0  0  0
   -4.8249    0.1751   -0.3684 C   0  0  0  0  0  0  0  0  0  0  0  0
   -4.1078    1.2967   -0.8202 C   0  0  0  0  0  0  0  0  0  0  0  0
   -4.7228    2.2762   -1.3273 O   0  0  0  0  0  0  0  0  0  0  0  0
  1  2  1  0
  2  3  4  0
  3  4  1  0
  4  5  4  0
  5  6  4  0
  6  7  4  0
  7  8  1  0
  8  9  4  0
  9 10  4  0
 10 11  4  0
 11 12  1  0
 12 13  1  0
 12 14  1  0
 12 15  1  0
 11 16  4  0
 16 17  4  0
  7 18  4  0
 18 19  4  0
  3 20  4  0
 20 21  4  0
 21 22  4  0
 22 23  4  0
 23 24  4  0
 24 25  4  0
 25 26  4  0
 26 27  4  0
 27 28  2  0
 17  8  4  0
 19  4  4  0
 26 21  4  0
 27  2  4  0
M  END
>  <SMILES>  (1) 
Cc4c(c2ccc(c1ccc(C(F)(F)F)nc1)nc2)[nH]c3ccccc3c4=O

>  <NumConformers>  (1) 
8

>  <EnergyUnits>  (1) 
RDKit_forcefield

>  <Processing_Time>  (1) 
20.7s

>  <Original_Conformers>  (1) 
500

>  <Total_Conformers>  (1) 
8

>  <Energy>  (1) 
64.869862515953486

>  <Energy_Unit>  (1) 
RDKit_forcefield

>  <Rank>  (1) 
1

>  <Conformer_Index>  (1) 
0

$$$$
PG-128
     RDKit          3D

 28 31  0  0  0  0  0  0  0  0999 V2000
   -1.8764    1.7843   -2.2436 C   0  0  0  0  0  0  0  0  0  0  0  0
   -2.6679    0.9093   -1.2975 C   0  0  0  0  0  0  0  0  0  0  0  0
   -2.0240    0.0804   -0.3453 C   0  0  0  0  0  0  0  0  0  0  0  0
   -0.5500    0.0628   -0.1972 C   0  0  0  0  0  0  0  0  0  0  0  0
    0.1554    1.2256    0.1381 C   0  0  0  0  0  0  0  0  0  0  0  0
    1.5418    1.1840    0.2939 C   0  0  0  0  0  0  0  0  0  0  0  0
    2.2248   -0.0326    0.1183 C   0  0  0  0  0  0  0  0  0  0  0  0
    3.6987   -0.1315    0.2759 C   0  0  0  0  0  0  0  0  0  0  0  0
    4.5454    0.9616    0.0189 C   0  0  0  0  0  0  0  0  0  0  0  0
    5.9270    0.8324    0.1686 C   0  0  0  0  0  0  0  0  0  0  0  0
    6.4661   -0.3950    0.5724 C   0  0  0  0  0  0  0  0  0  0  0  0
    7.9493   -0.5565    0.7338 C   0  0  0  0  0  0  0  0  0  0  0  0
    8.5744   -0.3399   -0.4806 F   0  0  0  0  0  0  0  0  0  0  0  0
    8.2548   -1.8327    1.1735 F   0  0  0  0  0  0  0  0  0  0  0  0
    8.4197    0.3588    1.6577 F   0  0  0  0  0  0  0  0  0  0  0  0
    5.6352   -1.4471    0.8050 N   0  0  0  0  0  0  0  0  0  0  0  0
    4.2867   -1.3474    0.6652 C   0  0  0  0  0  0  0  0  0  0  0  0
    1.5097   -1.1535   -0.1819 N   0  0  0  0  0  0  0  0  0  0  0  0
    0.1597   -1.1360   -0.3378 C   0  0  0  0  0  0  0  0  0  0  0  0
   -2.7674   -0.7323    0.4606 N   0  0  0  0  0  0  0  0  0  0  0  0
   -4.1288   -0.7502    0.4153 C   0  0  0  0  0  0  0  0  0  0  0  0
   -4.8541   -1.5955    1.2716 C   0  0  0  0  0  0  0  0  0  0  0  0
   -6.2501   -1.6070    1.2343 C   0  0  0  0  0  0  0  0  0  0  0  0
   -6.9343   -0.7763    0.3455 C   0  0  0  0  0  0  0  0  0  0  0  0
   -6.2264    0.0698   -0.5120 C   0  0  0  0  0  0  0  0  0  0  0  0
   -4.8178    0.0907   -0.4868 C   0  0  0  0  0  0  0  0  0  0  0  0
   -4.0764    0.9263   -1.3404 C   0  0  0  0  0  0  0  0  0  0  0  0
   -4.6732    1.6914   -2.1486 O   0  0  0  0  0  0  0  0  0  0  0  0
  1  2  1  0
  2  3  4  0
  3  4  1  0
  4  5  4  0
  5  6  4  0
  6  7  4  0
  7  8  1  0
  8  9  4  0
  9 10  4  0
 10 11  4  0
 11 12  1  0
 12 13  1  0
 12 14  1  0
 12 15  1  0
 11 16  4  0
 16 17  4  0
  7 18  4  0
 18 19  4  0
  3 20  4  0
 20 21  4  0
 21 22  4  0
 22 23  4  0
 23 24  4  0
 24 25  4  0
 25 26  4  0
 26 27  4  0
 27 28  2  0
 17  8  4  0
 19  4  4  0
 26 21  4  0
 27  2  4  0
M  END
>  <SMILES>  (2) 
Cc4c(c2ccc(c1ccc(C(F)(F)F)nc1)nc2)[nH]c3ccccc3c4=O

>  <NumConformers>  (2) 
8

>  <EnergyUnits>  (2) 
RDKit_forcefield

>  <Processing_Time>  (2) 
20.7s

>  <Original_Conformers>  (2) 
500

>  <Total_Conformers>  (2) 
8

>  <Energy>  (2) 
64.869862516202801

>  <Energy_Unit>  (2) 
RDKit_forcefield

>  <Rank>  (2) 
2

>  <Conformer_Index>  (2) 
1

$$$$
PG-128
     RDKit          3D

 28 31  0  0  0  0  0  0  0  0999 V2000
   -1.9208    1.9079   -2.1837 C   0  0  0  0  0  0  0  0  0  0  0  0
   -2.6872    0.9790   -1.2689 C   0  0  0  0  0  0  0  0  0  0  0  0
   -2.0197    0.1282   -0.3530 C   0  0  0  0  0  0  0  0  0  0  0  0
   -0.5449    0.1381   -0.2126 C   0  0  0  0  0  0  0  0  0  0  0  0
    0.1362    1.3025    0.1648 C   0  0  0  0  0  0  0  0  0  0  0  0
    1.5240    1.2862    0.3124 C   0  0  0  0  0  0  0  0  0  0  0  0
    2.2331    0.0931    0.0860 C   0  0  0  0  0  0  0  0  0  0  0  0
    3.7096    0.0213    0.2331 C   0  0  0  0  0  0  0  0  0  0  0  0
    4.3260   -1.1945    0.5727 C   0  0  0  0  0  0  0  0  0  0  0  0
    5.7130   -1.2697    0.7064 C   0  0  0  0  0  0  0  0  0  0  0  0
    6.4895   -0.1247    0.4922 C   0  0  0  0  0  0  0  0  0  0  0  0
    7.9831   -0.1844    0.6251 C   0  0  0  0  0  0  0  0  0  0  0  0
    8.5412    1.0630    0.4061 F   0  0  0  0  0  0  0  0  0  0  0  0
    8.4961   -1.0734   -0.3016 F   0  0  0  0  0  0  0  0  0  0  0  0
    8.3209   -0.6077    1.8977 F   0  0  0  0  0  0  0  0  0  0  0  0
    5.8805    1.0425    0.1478 N   0  0  0  0  0  0  0  0  0  0  0  0
    4.5312    1.1426    0.0145 C   0  0  0  0  0  0  0  0  0  0  0  0
    1.5416   -1.0310   -0.2545 N   0  0  0  0  0  0  0  0  0  0  0  0
    0.1907   -1.0380   -0.4033 C   0  0  0  0  0  0  0  0  0  0  0  0
   -2.7402   -0.7319    0.4240 N   0  0  0  0  0  0  0  0  0  0  0  0
   -4.1011   -0.7788    0.3843 C   0  0  0  0  0  0  0  0  0  0  0  0
   -4.8025   -1.6730    1.2102 C   0  0  0  0  0  0  0  0  0  0  0  0
   -6.1981   -1.7146    1.1791 C   0  0  0  0  0  0  0  0  0  0  0  0
   -6.9056   -0.8654    0.3267 C   0  0  0  0  0  0  0  0  0  0  0  0
   -6.2216    0.0292   -0.5003 C   0  0  0  0  0  0  0  0  0  0  0  0
   -4.8137    0.0810   -0.4809 C   0  0  0  0  0  0  0  0  0  0  0  0
   -4.0960    0.9657   -1.3046 C   0  0  0  0  0  0  0  0  0  0  0  0
   -4.7142    1.7481   -2.0794 O   0  0  0  0  0  0  0  0  0  0  0  0
  1  2  1  0
  2  3  4  0
  3  4  1  0
  4  5  4  0
  5  6  4  0
  6  7  4  0
  7  8  1  0
  8  9  4  0
  9 10  4  0
 10 11  4  0
 11 12  1  0
 12 13  1  0
 12 14  1  0
 12 15  1  0
 11 16  4  0
 16 17  4  0
  7 18  4  0
 18 19  4  0
  3 20  4  0
 20 21  4  0
 21 22  4  0
 22 23  4  0
 23 24  4  0
 24 25  4  0
 25 26  4  0
 26 27  4  0
 27 28  2  0
 17  8  4  0
 19  4  4  0
 26 21  4  0
 27  2  4  0
M  END
>  <SMILES>  (3) 
Cc4c(c2ccc(c1ccc(C(F)(F)F)nc1)nc2)[nH]c3ccccc3c4=O

>  <NumConformers>  (3) 
8

>  <EnergyUnits>  (3) 
RDKit_forcefield

>  <Processing_Time>  (3) 
20.7s

>  <Original_Conformers>  (3) 
500

>  <Total_Conformers>  (3) 
8

>  <Energy>  (3) 
64.881430738975979

>  <Energy_Unit>  (3) 
RDKit_forcefield

>  <Rank>  (3) 
3

>  <Conformer_Index>  (3) 
2

$$$$
PG-128
     RDKit          3D

 28 31  0  0  0  0  0  0  0  0999 V2000
   -1.9887    2.6334   -1.0555 C   0  0  0  0  0  0  0  0  0  0  0  0
   -2.7243    1.3746   -0.6537 C   0  0  0  0  0  0  0  0  0  0  0  0
   -2.0288    0.2256   -0.2016 C   0  0  0  0  0  0  0  0  0  0  0  0
   -0.5491    0.1829   -0.1430 C   0  0  0  0  0  0  0  0  0  0  0  0
    0.2242    0.3624   -1.2971 C   0  0  0  0  0  0  0  0  0  0  0  0
    1.6166    0.2974   -1.2252 C   0  0  0  0  0  0  0  0  0  0  0  0
    2.2376    0.0448    0.0110 C   0  0  0  0  0  0  0  0  0  0  0  0
    3.7152   -0.0379    0.1411 C   0  0  0  0  0  0  0  0  0  0  0  0
    4.2908   -0.8186    1.1572 C   0  0  0  0  0  0  0  0  0  0  0  0
    5.6780   -0.8954    1.2883 C   0  0  0  0  0  0  0  0  0  0  0  0
    6.4949   -0.1819    0.4032 C   0  0  0  0  0  0  0  0  0  0  0  0
    7.9888   -0.2458    0.5296 C   0  0  0  0  0  0  0  0  0  0  0  0
    8.4099   -1.5586    0.4191 F   0  0  0  0  0  0  0  0  0  0  0  0
    8.3720    0.2531    1.7611 F   0  0  0  0  0  0  0  0  0  0  0  0
    8.5937    0.5028   -0.4650 F   0  0  0  0  0  0  0  0  0  0  0  0
    5.9235    0.5833   -0.5662 N   0  0  0  0  0  0  0  0  0  0  0  0
    4.5753    0.6723   -0.7169 C   0  0  0  0  0  0  0  0  0  0  0  0
    1.4593   -0.1519    1.1125 N   0  0  0  0  0  0  0  0  0  0  0  0
    0.1023   -0.0936    1.0652 C   0  0  0  0  0  0  0  0  0  0  0  0
   -2.7266   -0.8770    0.1983 N   0  0  0  0  0  0  0  0  0  0  0  0
   -4.0865   -0.9349    0.1416 C   0  0  0  0  0  0  0  0  0  0  0  0
   -4.7630   -2.0951    0.5539 C   0  0  0  0  0  0  0  0  0  0  0  0
   -6.1564   -2.1604    0.4859 C   0  0  0  0  0  0  0  0  0  0  0  0
   -6.8863   -1.0719    0.0057 C   0  0  0  0  0  0  0  0  0  0  0  0
   -6.2272    0.0885   -0.4081 C   0  0  0  0  0  0  0  0  0  0  0  0
   -4.8220    0.1694   -0.3435 C   0  0  0  0  0  0  0  0  0  0  0  0
   -4.1295    1.3245   -0.7467 C   0  0  0  0  0  0  0  0  0  0  0  0
   -4.7677    2.3197   -1.1907 O   0  0  0  0  0  0  0  0  0  0  0  0
  1  2  1  0
  2  3  4  0
  3  4  1  0
  4  5  4  0
  5  6  4  0
  6  7  4  0
  7  8  1  0
  8  9  4  0
  9 10  4  0
 10 11  4  0
 11 12  1  0
 12 13  1  0
 12 14  1  0
 12 15  1  0
 11 16  4  0
 16 17  4  0
  7 18  4  0
 18 19  4  0
  3 20  4  0
 20 21  4  0
 21 22  4  0
 22 23  4  0
 23 24  4  0
 24 25  4  0
 25 26  4  0
 26 27  4  0
 27 28  2  0
 17  8  4  0
 19  4  4  0
 26 21  4  0
 27  2  4  0
M  END
>  <SMILES>  (4) 
Cc4c(c2ccc(c1ccc(C(F)(F)F)nc1)nc2)[nH]c3ccccc3c4=O

>  <NumConformers>  (4) 
8

>  <EnergyUnits>  (4) 
RDKit_forcefield

>  <Processing_Time>  (4) 
20.7s

>  <Original_Conformers>  (4) 
500

>  <Total_Conformers>  (4) 
8

>  <Energy>  (4) 
64.881430739228989

>  <Energy_Unit>  (4) 
RDKit_forcefield

>  <Rank>  (4) 
4

>  <Conformer_Index>  (4) 
3

$$$$
PG-128
     RDKit          3D

 28 31  0  0  0  0  0  0  0  0999 V2000
   -1.9433    2.6576   -1.0029 C   0  0  0  0  0  0  0  0  0  0  0  0
   -2.7034    1.4079   -0.6186 C   0  0  0  0  0  0  0  0  0  0  0  0
   -2.0289    0.2225   -0.2338 C   0  0  0  0  0  0  0  0  0  0  0  0
   -0.5516    0.1598   -0.1445 C   0  0  0  0  0  0  0  0  0  0  0  0
    0.1617   -0.7781   -0.8999 C   0  0  0  0  0  0  0  0  0  0  0  0
    1.5523   -0.8476   -0.8003 C   0  0  0  0  0  0  0  0  0  0  0  0
    2.2304    0.0180    0.0765 C   0  0  0  0  0  0  0  0  0  0  0  0
    3.7091   -0.0113    0.2164 C   0  0  0  0  0  0  0  0  0  0  0  0
    4.4507   -1.1860   -0.0028 C   0  0  0  0  0  0  0  0  0  0  0  0
    5.8384   -1.1805    0.1455 C   0  0  0  0  0  0  0  0  0  0  0  0
    6.4884    0.0021    0.5185 C   0  0  0  0  0  0  0  0  0  0  0  0
    7.9792    0.0279    0.6887 C   0  0  0  0  0  0  0  0  0  0  0  0
    8.5895   -0.3552   -0.4918 F   0  0  0  0  0  0  0  0  0  0  0  0
    8.3463   -0.8461    1.6956 F   0  0  0  0  0  0  0  0  0  0  0  0
    8.4089    1.3007    1.0215 F   0  0  0  0  0  0  0  0  0  0  0  0
    5.7562    1.1275    0.7394 N   0  0  0  0  0  0  0  0  0  0  0  0
    4.4038    1.1478    0.6030 C   0  0  0  0  0  0  0  0  0  0  0  0
    1.5098    0.9158    0.8061 N   0  0  0  0  0  0  0  0  0  0  0  0
    0.1562    1.0027    0.7226 C   0  0  0  0  0  0  0  0  0  0  0  0
   -2.7450   -0.9016    0.0596 N   0  0  0  0  0  0  0  0  0  0  0  0
   -4.1070   -0.9204    0.0378 C   0  0  0  0  0  0  0  0  0  0  0  0
   -4.8035   -2.0978    0.3577 C   0  0  0  0  0  0  0  0  0  0  0  0
   -6.1999   -2.1158    0.3469 C   0  0  0  0  0  0  0  0  0  0  0  0
   -6.9130   -0.9617    0.0189 C   0  0  0  0  0  0  0  0  0  0  0  0
   -6.2340    0.2167   -0.3014 C   0  0  0  0  0  0  0  0  0  0  0  0
   -4.8254    0.2492   -0.2964 C   0  0  0  0  0  0  0  0  0  0  0  0
   -4.1126    1.4171   -0.6196 C   0  0  0  0  0  0  0  0  0  0  0  0
   -4.7358    2.4753   -0.9137 O   0  0  0  0  0  0  0  0  0  0  0  0
  1  2  1  0
  2  3  4  0
  3  4  1  0
  4  5  4  0
  5  6  4  0
  6  7  4  0
  7  8  1  0
  8  9  4  0
  9 10  4  0
 10 11  4  0
 11 12  1  0
 12 13  1  0
 12 14  1  0
 12 15  1  0
 11 16  4  0
 16 17  4  0
  7 18  4  0
 18 19  4  0
  3 20  4  0
 20 21  4  0
 21 22  4  0
 22 23  4  0
 23 24  4  0
 24 25  4  0
 25 26  4  0
 26 27  4  0
 27 28  2  0
 17  8  4  0
 19  4  4  0
 26 21  4  0
 27  2  4  0
M  END
>  <SMILES>  (5) 
Cc4c(c2ccc(c1ccc(C(F)(F)F)nc1)nc2)[nH]c3ccccc3c4=O

>  <NumConformers>  (5) 
8

>  <EnergyUnits>  (5) 
RDKit_forcefield

>  <Processing_Time>  (5) 
20.7s

>  <Original_Conformers>  (5) 
500

>  <Total_Conformers>  (5) 
8

>  <Energy>  (5) 
64.923926075562321

>  <Energy_Unit>  (5) 
RDKit_forcefield

>  <Rank>  (5) 
5

>  <Conformer_Index>  (5) 
4

$$$$
PG-128
     RDKit          3D

 28 31  0  0  0  0  0  0  0  0999 V2000
   -2.0042    2.7715    0.2135 C   0  0  0  0  0  0  0  0  0  0  0  0
   -2.7341    1.4653   -0.0061 C   0  0  0  0  0  0  0  0  0  0  0  0
   -2.0358    0.2354   -0.0960 C   0  0  0  0  0  0  0  0  0  0  0  0
   -0.5575    0.1709   -0.0254 C   0  0  0  0  0  0  0  0  0  0  0  0
    0.0687   -0.6041    0.9575 C   0  0  0  0  0  0  0  0  0  0  0  0
    1.4616   -0.6780    1.0107 C   0  0  0  0  0  0  0  0  0  0  0  0
    2.2312    0.0165    0.0604 C   0  0  0  0  0  0  0  0  0  0  0  0
    3.7162   -0.0245    0.0755 C   0  0  0  0  0  0  0  0  0  0  0  0
    4.4214   -1.1314    0.5807 C   0  0  0  0  0  0  0  0  0  0  0  0
    5.8171   -1.1405    0.5722 C   0  0  0  0  0  0  0  0  0  0  0  0
    6.5118   -0.0415    0.0529 C   0  0  0  0  0  0  0  0  0  0  0  0
    8.0122   -0.0339    0.0294 C   0  0  0  0  0  0  0  0  0  0  0  0
    8.4990   -0.1861    1.3149 F   0  0  0  0  0  0  0  0  0  0  0  0
    8.4691   -1.0757   -0.7569 F   0  0  0  0  0  0  0  0  0  0  0  0
    8.4846    1.1592   -0.4891 F   0  0  0  0  0  0  0  0  0  0  0  0
    5.8155    1.0167   -0.4440 N   0  0  0  0  0  0  0  0  0  0  0  0
    4.4565    1.0494   -0.4484 C   0  0  0  0  0  0  0  0  0  0  0  0
    1.5948    0.7570   -0.8906 N   0  0  0  0  0  0  0  0  0  0  0  0
    0.2404    0.8453   -0.9592 C   0  0  0  0  0  0  0  0  0  0  0  0
   -2.7297   -0.9302   -0.2456 N   0  0  0  0  0  0  0  0  0  0  0  0
   -4.0873   -0.9572   -0.3557 C   0  0  0  0  0  0  0  0  0  0  0  0
   -4.7595   -2.1799   -0.5195 C   0  0  0  0  0  0  0  0  0  0  0  0
   -6.1503   -2.2086   -0.6439 C   0  0  0  0  0  0  0  0  0  0  0  0
   -6.8817   -1.0203   -0.6076 C   0  0  0  0  0  0  0  0  0  0  0  0
   -6.2268    0.2032   -0.4453 C   0  0  0  0  0  0  0  0  0  0  0  0
   -4.8244    0.2473   -0.3167 C   0  0  0  0  0  0  0  0  0  0  0  0
   -4.1363    1.4614   -0.1464 C   0  0  0  0  0  0  0  0  0  0  0  0
   -4.7757    2.5500   -0.1165 O   0  0  0  0  0  0  0  0  0  0  0  0
  1  2  1  0
  2  3  4  0
  3  4  1  0
  4  5  4  0
  5  6  4  0
  6  7  4  0
  7  8  1  0
  8  9  4  0
  9 10  4  0
 10 11  4  0
 11 12  1  0
 12 13  1  0
 12 14  1  0
 12 15  1  0
 11 16  4  0
 16 17  4  0
  7 18  4  0
 18 19  4  0
  3 20  4  0
 20 21  4  0
 21 22  4  0
 22 23  4  0
 23 24  4  0
 24 25  4  0
 25 26  4  0
 26 27  4  0
 27 28  2  0
 17  8  4  0
 19  4  4  0
 26 21  4  0
 27  2  4  0
M  END
>  <SMILES>  (6) 
Cc4c(c2ccc(c1ccc(C(F)(F)F)nc1)nc2)[nH]c3ccccc3c4=O

>  <NumConformers>  (6) 
8

>  <EnergyUnits>  (6) 
RDKit_forcefield

>  <Processing_Time>  (6) 
20.7s

>  <Original_Conformers>  (6) 
500

>  <Total_Conformers>  (6) 
8

>  <Energy>  (6) 
64.923926076513823

>  <Energy_Unit>  (6) 
RDKit_forcefield

>  <Rank>  (6) 
6

>  <Conformer_Index>  (6) 
5

$$$$
PG-128
     RDKit          3D

 28 31  0  0  0  0  0  0  0  0999 V2000
   -1.9508    2.7469    0.0831 C   0  0  0  0  0  0  0  0  0  0  0  0
   -2.7059    1.4461   -0.0745 C   0  0  0  0  0  0  0  0  0  0  0  0
   -2.0329    0.1990   -0.0912 C   0  0  0  0  0  0  0  0  0  0  0  0
   -0.5571    0.1080   -0.0014 C   0  0  0  0  0  0  0  0  0  0  0  0
    0.0432   -0.6261    1.0281 C   0  0  0  0  0  0  0  0  0  0  0  0
    1.4336   -0.7256    1.1002 C   0  0  0  0  0  0  0  0  0  0  0  0
    2.2269   -0.0988    0.1226 C   0  0  0  0  0  0  0  0  0  0  0  0
    3.7104   -0.1691    0.1559 C   0  0  0  0  0  0  0  0  0  0  0  0
    4.4774    0.8601   -0.4150 C   0  0  0  0  0  0  0  0  0  0  0  0
    5.8713    0.7975   -0.3921 C   0  0  0  0  0  0  0  0  0  0  0  0
    6.5026   -0.3036    0.1984 C   0  0  0  0  0  0  0  0  0  0  0  0
    8.0002   -0.3939    0.2290 C   0  0  0  0  0  0  0  0  0  0  0  0
    8.4897   -0.4243   -1.0639 F   0  0  0  0  0  0  0  0  0  0  0  0
    8.4051   -1.5414    0.8884 F   0  0  0  0  0  0  0  0  0  0  0  0
    8.5197    0.7061    0.8869 F   0  0  0  0  0  0  0  0  0  0  0  0
    5.7471   -1.3011    0.7332 N   0  0  0  0  0  0  0  0  0  0  0  0
    4.3881   -1.2624    0.7266 C   0  0  0  0  0  0  0  0  0  0  0  0
    1.6154    0.6027   -0.8733 N   0  0  0  0  0  0  0  0  0  0  0  0
    0.2639    0.7150   -0.9611 C   0  0  0  0  0  0  0  0  0  0  0  0
   -2.7498   -0.9583   -0.1860 N   0  0  0  0  0  0  0  0  0  0  0  0
   -4.1065   -0.9633   -0.3092 C   0  0  0  0  0  0  0  0  0  0  0  0
   -4.8028   -2.1789   -0.4148 C   0  0  0  0  0  0  0  0  0  0  0  0
   -6.1926   -2.1856   -0.5525 C   0  0  0  0  0  0  0  0  0  0  0  0
   -6.8990   -0.9823   -0.5874 C   0  0  0  0  0  0  0  0  0  0  0  0
   -6.2200    0.2344   -0.4835 C   0  0  0  0  0  0  0  0  0  0  0  0
   -4.8183    0.2565   -0.3423 C   0  0  0  0  0  0  0  0  0  0  0  0
   -4.1065    1.4635   -0.2295 C   0  0  0  0  0  0  0  0  0  0  0  0
   -4.7230    2.5651   -0.2645 O   0  0  0  0  0  0  0  0  0  0  0  0
  1  2  1  0
  2  3  4  0
  3  4  1  0
  4  5  4  0
  5  6  4  0
  6  7  4  0
  7  8  1  0
  8  9  4  0
  9 10  4  0
 10 11  4  0
 11 12  1  0
 12 13  1  0
 12 14  1  0
 12 15  1  0
 11 16  4  0
 16 17  4  0
  7 18  4  0
 18 19  4  0
  3 20  4  0
 20 21  4  0
 21 22  4  0
 22 23  4  0
 23 24  4  0
 24 25  4  0
 25 26  4  0
 26 27  4  0
 27 28  2  0
 17  8  4  0
 19  4  4  0
 26 21  4  0
 27  2  4  0
M  END
>  <SMILES>  (7) 
Cc4c(c2ccc(c1ccc(C(F)(F)F)nc1)nc2)[nH]c3ccccc3c4=O

>  <NumConformers>  (7) 
8

>  <EnergyUnits>  (7) 
RDKit_forcefield

>  <Processing_Time>  (7) 
20.7s

>  <Original_Conformers>  (7) 
500

>  <Total_Conformers>  (7) 
8

>  <Energy>  (7) 
64.934219660980006

>  <Energy_Unit>  (7) 
RDKit_forcefield

>  <Rank>  (7) 
7

>  <Conformer_Index>  (7) 
6

$$$$
PG-128
     RDKit          3D

 28 31  0  0  0  0  0  0  0  0999 V2000
   -1.8865    2.5508   -1.1821 C   0  0  0  0  0  0  0  0  0  0  0  0
   -2.6734    1.3469   -0.7147 C   0  0  0  0  0  0  0  0  0  0  0  0
   -2.0245    0.1735   -0.2558 C   0  0  0  0  0  0  0  0  0  0  0  0
   -0.5486    0.0823   -0.1676 C   0  0  0  0  0  0  0  0  0  0  0  0
    0.1392   -0.9191   -0.8628 C   0  0  0  0  0  0  0  0  0  0  0  0
    1.5282   -1.0143   -0.7636 C   0  0  0  0  0  0  0  0  0  0  0  0
    2.2304   -0.1097    0.0526 C   0  0  0  0  0  0  0  0  0  0  0  0
    3.7087   -0.1640    0.1889 C   0  0  0  0  0  0  0  0  0  0  0  0
    4.4312    1.0011    0.4954 C   0  0  0  0  0  0  0  0  0  0  0  0
    5.8194    0.9560    0.6304 C   0  0  0  0  0  0  0  0  0  0  0  0
    6.4890   -0.2623    0.4654 C   0  0  0  0  0  0  0  0  0  0  0  0
    7.9808   -0.3346    0.6117 C   0  0  0  0  0  0  0  0  0  0  0  0
    8.5796    0.5233   -0.2928 F   0  0  0  0  0  0  0  0  0  0  0  0
    8.4312   -1.6213    0.3729 F   0  0  0  0  0  0  0  0  0  0  0  0
    8.3395    0.0343    1.8952 F   0  0  0  0  0  0  0  0  0  0  0  0
    5.7749   -1.3861    0.1847 N   0  0  0  0  0  0  0  0  0  0  0  0
    4.4227   -1.3680    0.0449 C   0  0  0  0  0  0  0  0  0  0  0  0
    1.5343    0.8503    0.7246 N   0  0  0  0  0  0  0  0  0  0  0  0
    0.1826    0.9631    0.6403 C   0  0  0  0  0  0  0  0  0  0  0  0
   -2.7649   -0.9121    0.1125 N   0  0  0  0  0  0  0  0  0  0  0  0
   -4.1271   -0.9004    0.0967 C   0  0  0  0  0  0  0  0  0  0  0  0
   -4.8490   -2.0380    0.4949 C   0  0  0  0  0  0  0  0  0  0  0  0
   -6.2455   -2.0240    0.4900 C   0  0  0  0  0  0  0  0  0  0  0  0
   -6.9334   -0.8773    0.0900 C   0  0  0  0  0  0  0  0  0  0  0  0
   -6.2289    0.2615   -0.3087 C   0  0  0  0  0  0  0  0  0  0  0  0
   -4.8199    0.2614   -0.3105 C   0  0  0  0  0  0  0  0  0  0  0  0
   -4.0820    1.3888   -0.7115 C   0  0  0  0  0  0  0  0  0  0  0  0
   -4.6821    2.4400   -1.0718 O   0  0  0  0  0  0  0  0  0  0  0  0
  1  2  1  0
  2  3  4  0
  3  4  1  0
  4  5  4  0
  5  6  4  0
  6  7  4  0
  7  8  1  0
  8  9  4  0
  9 10  4  0
 10 11  4  0
 11 12  1  0
 12 13  1  0
 12 14  1  0
 12 15  1  0
 11 16  4  0
 16 17  4  0
  7 18  4  0
 18 19  4  0
  3 20  4  0
 20 21  4  0
 21 22  4  0
 22 23  4  0
 23 24  4  0
 24 25  4  0
 25 26  4  0
 26 27  4  0
 27 28  2  0
 17  8  4  0
 19  4  4  0
 26 21  4  0
 27  2  4  0
M  END
>  <SMILES>  (8) 
Cc4c(c2ccc(c1ccc(C(F)(F)F)nc1)nc2)[nH]c3ccccc3c4=O

>  <NumConformers>  (8) 
8

>  <EnergyUnits>  (8) 
RDKit_forcefield

>  <Processing_Time>  (8) 
20.7s

>  <Original_Conformers>  (8) 
500

>  <Total_Conformers>  (8) 
8

>  <Energy>  (8) 
64.934219661060226

>  <Energy_Unit>  (8) 
RDKit_forcefield

>  <Rank>  (8) 
8

>  <Conformer_Index>  (8) 
7

$$$$
