PG-203
     RDKit          3D

 30 33  0  0  0  0  0  0  0  0999 V2000
   -1.9122   -1.3671    1.9089 C   0  0  0  0  0  0  0  0  0  0  0  0
   -2.9306   -0.9033    0.8989 C   0  0  0  0  0  0  0  0  0  0  0  0
   -4.1953   -1.4143    0.9519 N   0  0  0  0  0  0  0  0  0  0  0  0
   -5.1696   -1.0281    0.0804 C   0  0  0  0  0  0  0  0  0  0  0  0
   -6.4619   -1.5705    0.1779 C   0  0  0  0  0  0  0  0  0  0  0  0
   -7.4622   -1.1738   -0.7123 C   0  0  0  0  0  0  0  0  0  0  0  0
   -7.1835   -0.2345   -1.7066 C   0  0  0  0  0  0  0  0  0  0  0  0
   -5.9028    0.3130   -1.8170 C   0  0  0  0  0  0  0  0  0  0  0  0
   -4.8839   -0.0775   -0.9259 C   0  0  0  0  0  0  0  0  0  0  0  0
   -3.5838    0.4490   -1.0149 C   0  0  0  0  0  0  0  0  0  0  0  0
   -3.2990    1.2867   -1.9163 O   0  0  0  0  0  0  0  0  0  0  0  0
   -2.5925    0.0328   -0.1065 C   0  0  0  0  0  0  0  0  0  0  0  0
   -1.2193    0.5801   -0.2157 C   0  0  0  0  0  0  0  0  0  0  0  0
   -0.1494   -0.2549   -0.5713 C   0  0  0  0  0  0  0  0  0  0  0  0
    1.1446    0.2632   -0.6735 C   0  0  0  0  0  0  0  0  0  0  0  0
    1.3861    1.6241   -0.4134 C   0  0  0  0  0  0  0  0  0  0  0  0
    2.6681    2.1833   -0.5183 O   0  0  0  0  0  0  0  0  0  0  0  0
    3.8713    1.5134   -0.2514 C   0  0  0  0  0  0  0  0  0  0  0  0
    3.9597    0.4998    0.7187 C   0  0  0  0  0  0  0  0  0  0  0  0
    5.1805   -0.1346    0.9682 C   0  0  0  0  0  0  0  0  0  0  0  0
    6.3364    0.2452    0.2587 C   0  0  0  0  0  0  0  0  0  0  0  0
    7.5875   -0.3581    0.4657 O   0  0  0  0  0  0  0  0  0  0  0  0
    7.8520   -1.4093    1.3921 C   0  0  0  0  0  0  0  0  0  0  0  0
    7.5719   -0.9910    2.6807 F   0  0  0  0  0  0  0  0  0  0  0  0
    7.0907   -2.5218    1.0812 F   0  0  0  0  0  0  0  0  0  0  0  0
    9.1887   -1.7489    1.3150 F   0  0  0  0  0  0  0  0  0  0  0  0
    6.2453    1.2687   -0.6920 C   0  0  0  0  0  0  0  0  0  0  0  0
    5.0245    1.9024   -0.9404 C   0  0  0  0  0  0  0  0  0  0  0  0
    0.3124    2.4602   -0.0869 C   0  0  0  0  0  0  0  0  0  0  0  0
   -0.9822    1.9432    0.0164 C   0  0  0  0  0  0  0  0  0  0  0  0
  1  2  1  0
  2  3  4  0
  3  4  4  0
  4  5  4  0
  5  6  4  0
  6  7  4  0
  7  8  4  0
  8  9  4  0
  9 10  4  0
 10 11  2  0
 10 12  4  0
 12 13  1  0
 13 14  4  0
 14 15  4  0
 15 16  4  0
 16 17  1  0
 17 18  1  0
 18 19  4  0
 19 20  4  0
 20 21  4  0
 21 22  1  0
 22 23  1  0
 23 24  1  0
 23 25  1  0
 23 26  1  0
 21 27  4  0
 27 28  4  0
 16 29  4  0
 29 30  4  0
  9  4  4  0
 12  2  4  0
 28 18  4  0
 30 13  4  0
M  END
>  <SMILES>  (1) 
Cc2[nH]c1ccccc1c(=O)c2c4ccc(Oc3ccc(OC(F)(F)F)cc3)cc4

>  <NumConformers>  (1) 
16

>  <EnergyUnits>  (1) 
RDKit_forcefield

>  <Processing_Time>  (1) 
32.1s

>  <Original_Conformers>  (1) 
500

>  <Total_Conformers>  (1) 
16

>  <Energy>  (1) 
70.45856886100573

>  <Energy_Unit>  (1) 
RDKit_forcefield

>  <Rank>  (1) 
1

>  <Conformer_Index>  (1) 
0

$$$$
PG-203
     RDKit          3D

 30 33  0  0  0  0  0  0  0  0999 V2000
   -1.8162   -2.0316    1.2938 C   0  0  0  0  0  0  0  0  0  0  0  0
   -2.8845   -1.2228    0.6032 C   0  0  0  0  0  0  0  0  0  0  0  0
   -4.1921   -1.4364    0.9315 N   0  0  0  0  0  0  0  0  0  0  0  0
   -5.2095   -0.7522    0.3357 C   0  0  0  0  0  0  0  0  0  0  0  0
   -6.5426   -1.0119    0.6950 C   0  0  0  0  0  0  0  0  0  0  0  0
   -7.5864   -0.3140    0.0835 C   0  0  0  0  0  0  0  0  0  0  0  0
   -7.3110    0.6479   -0.8898 C   0  0  0  0  0  0  0  0  0  0  0  0
   -5.9902    0.9181   -1.2569 C   0  0  0  0  0  0  0  0  0  0  0  0
   -4.9272    0.2219   -0.6489 C   0  0  0  0  0  0  0  0  0  0  0  0
   -3.5876    0.4754   -0.9905 C   0  0  0  0  0  0  0  0  0  0  0  0
   -3.3086    1.3533   -1.8546 O   0  0  0  0  0  0  0  0  0  0  0  0
   -2.5530   -0.2405   -0.3595 C   0  0  0  0  0  0  0  0  0  0  0  0
   -1.1417    0.0428   -0.7130 C   0  0  0  0  0  0  0  0  0  0  0  0
   -0.6670   -0.2384   -2.0029 C   0  0  0  0  0  0  0  0  0  0  0  0
    0.6637    0.0289   -2.3372 C   0  0  0  0  0  0  0  0  0  0  0  0
    1.5383    0.5706   -1.3885 C   0  0  0  0  0  0  0  0  0  0  0  0
    2.8630    0.8349   -1.7664 O   0  0  0  0  0  0  0  0  0  0  0  0
    3.9743    0.8006   -0.9112 C   0  0  0  0  0  0  0  0  0  0  0  0
    4.0430   -0.0762    0.1856 C   0  0  0  0  0  0  0  0  0  0  0  0
    5.1745   -0.0930    1.0068 C   0  0  0  0  0  0  0  0  0  0  0  0
    6.2621    0.7598    0.7349 C   0  0  0  0  0  0  0  0  0  0  0  0
    7.4220    0.7875    1.5260 O   0  0  0  0  0  0  0  0  0  0  0  0
    7.6508   -0.0167    2.6811 C   0  0  0  0  0  0  0  0  0  0  0  0
    7.6248   -1.3575    2.3415 F   0  0  0  0  0  0  0  0  0  0  0  0
    6.6910    0.2453    3.6424 F   0  0  0  0  0  0  0  0  0  0  0  0
    8.8946    0.2872    3.1996 F   0  0  0  0  0  0  0  0  0  0  0  0
    6.1951    1.6163   -0.3703 C   0  0  0  0  0  0  0  0  0  0  0  0
    5.0636    1.6319   -1.1907 C   0  0  0  0  0  0  0  0  0  0  0  0
    1.0557    0.8786   -0.1039 C   0  0  0  0  0  0  0  0  0  0  0  0
   -0.2747    0.6125    0.2315 C   0  0  0  0  0  0  0  0  0  0  0  0
  1  2  1  0
  2  3  4  0
  3  4  4  0
  4  5  4  0
  5  6  4  0
  6  7  4  0
  7  8  4  0
  8  9  4  0
  9 10  4  0
 10 11  2  0
 10 12  4  0
 12 13  1  0
 13 14  4  0
 14 15  4  0
 15 16  4  0
 16 17  1  0
 17 18  1  0
 18 19  4  0
 19 20  4  0
 20 21  4  0
 21 22  1  0
 22 23  1  0
 23 24  1  0
 23 25  1  0
 23 26  1  0
 21 27  4  0
 27 28  4  0
 16 29  4  0
 29 30  4  0
  9  4  4  0
 12  2  4  0
 28 18  4  0
 30 13  4  0
M  END
>  <SMILES>  (2) 
Cc2[nH]c1ccccc1c(=O)c2c4ccc(Oc3ccc(OC(F)(F)F)cc3)cc4

>  <NumConformers>  (2) 
16

>  <EnergyUnits>  (2) 
RDKit_forcefield

>  <Processing_Time>  (2) 
32.1s

>  <Original_Conformers>  (2) 
500

>  <Total_Conformers>  (2) 
16

>  <Energy>  (2) 
70.458568867888076

>  <Energy_Unit>  (2) 
RDKit_forcefield

>  <Rank>  (2) 
2

>  <Conformer_Index>  (2) 
1

$$$$
PG-203
     RDKit          3D

 30 33  0  0  0  0  0  0  0  0999 V2000
   -2.0512   -2.2062    1.1860 C   0  0  0  0  0  0  0  0  0  0  0  0
   -3.0585   -1.3050    0.5184 C   0  0  0  0  0  0  0  0  0  0  0  0
   -4.3856   -1.4870    0.7811 N   0  0  0  0  0  0  0  0  0  0  0  0
   -5.3507   -0.7191    0.2006 C   0  0  0  0  0  0  0  0  0  0  0  0
   -6.7063   -0.9482    0.4898 C   0  0  0  0  0  0  0  0  0  0  0  0
   -7.6967   -0.1643   -0.1064 C   0  0  0  0  0  0  0  0  0  0  0  0
   -7.3450    0.8536   -0.9944 C   0  0  0  0  0  0  0  0  0  0  0  0
   -6.0011    1.0942   -1.2910 C   0  0  0  0  0  0  0  0  0  0  0  0
   -4.9913    0.3115   -0.6975 C   0  0  0  0  0  0  0  0  0  0  0  0
   -3.6302    0.5328   -0.9694 C   0  0  0  0  0  0  0  0  0  0  0  0
   -3.2827    1.4589   -1.7548 O   0  0  0  0  0  0  0  0  0  0  0  0
   -2.6505   -0.2700   -0.3555 C   0  0  0  0  0  0  0  0  0  0  0  0
   -1.2161   -0.0211   -0.6343 C   0  0  0  0  0  0  0  0  0  0  0  0
   -0.7015   -0.2272   -1.9230 C   0  0  0  0  0  0  0  0  0  0  0  0
    0.6509    0.0079   -2.1870 C   0  0  0  0  0  0  0  0  0  0  0  0
    1.5073    0.4419   -1.1688 C   0  0  0  0  0  0  0  0  0  0  0  0
    2.8553    0.6776   -1.4766 O   0  0  0  0  0  0  0  0  0  0  0  0
    3.9294    0.5347   -0.5858 C   0  0  0  0  0  0  0  0  0  0  0  0
    5.0607    1.3380   -0.7625 C   0  0  0  0  0  0  0  0  0  0  0  0
    6.1588    1.2169    0.0947 C   0  0  0  0  0  0  0  0  0  0  0  0
    6.1429    0.2725    1.1396 C   0  0  0  0  0  0  0  0  0  0  0  0
    7.2152    0.1076    2.0312 O   0  0  0  0  0  0  0  0  0  0  0  0
    8.4304    0.8533    2.0051 C   0  0  0  0  0  0  0  0  0  0  0  0
    9.0850    0.6563    0.8024 F   0  0  0  0  0  0  0  0  0  0  0  0
    8.1677    2.1996    2.1844 F   0  0  0  0  0  0  0  0  0  0  0  0
    9.2454    0.4181    3.0320 F   0  0  0  0  0  0  0  0  0  0  0  0
    5.0172   -0.5437    1.3016 C   0  0  0  0  0  0  0  0  0  0  0  0
    3.9200   -0.4214    0.4444 C   0  0  0  0  0  0  0  0  0  0  0  0
    0.9860    0.6754    0.1165 C   0  0  0  0  0  0  0  0  0  0  0  0
   -0.3662    0.4414    0.3815 C   0  0  0  0  0  0  0  0  0  0  0  0
  1  2  1  0
  2  3  4  0
  3  4  4  0
  4  5  4  0
  5  6  4  0
  6  7  4  0
  7  8  4  0
  8  9  4  0
  9 10  4  0
 10 11  2  0
 10 12  4  0
 12 13  1  0
 13 14  4  0
 14 15  4  0
 15 16  4  0
 16 17  1  0
 17 18  1  0
 18 19  4  0
 19 20  4  0
 20 21  4  0
 21 22  1  0
 22 23  1  0
 23 24  1  0
 23 25  1  0
 23 26  1  0
 21 27  4  0
 27 28  4  0
 16 29  4  0
 29 30  4  0
  9  4  4  0
 12  2  4  0
 28 18  4  0
 30 13  4  0
M  END
>  <SMILES>  (3) 
Cc2[nH]c1ccccc1c(=O)c2c4ccc(Oc3ccc(OC(F)(F)F)cc3)cc4

>  <NumConformers>  (3) 
16

>  <EnergyUnits>  (3) 
RDKit_forcefield

>  <Processing_Time>  (3) 
32.1s

>  <Original_Conformers>  (3) 
500

>  <Total_Conformers>  (3) 
16

>  <Energy>  (3) 
70.474230356620325

>  <Energy_Unit>  (3) 
RDKit_forcefield

>  <Rank>  (3) 
3

>  <Conformer_Index>  (3) 
2

$$$$
PG-203
     RDKit          3D

 30 33  0  0  0  0  0  0  0  0999 V2000
   -2.1124   -1.8716    1.6009 C   0  0  0  0  0  0  0  0  0  0  0  0
   -3.0831   -1.1708    0.6849 C   0  0  0  0  0  0  0  0  0  0  0  0
   -4.3551   -1.6534    0.5747 N   0  0  0  0  0  0  0  0  0  0  0  0
   -5.2883   -1.0602   -0.2224 C   0  0  0  0  0  0  0  0  0  0  0  0
   -6.5902   -1.5830   -0.2974 C   0  0  0  0  0  0  0  0  0  0  0  0
   -7.5484   -0.9748   -1.1113 C   0  0  0  0  0  0  0  0  0  0  0  0
   -7.2178    0.1580   -1.8570 C   0  0  0  0  0  0  0  0  0  0  0  0
   -5.9269    0.6888   -1.7938 C   0  0  0  0  0  0  0  0  0  0  0  0
   -4.9501    0.0861   -0.9770 C   0  0  0  0  0  0  0  0  0  0  0  0
   -3.6409    0.5912   -0.8970 C   0  0  0  0  0  0  0  0  0  0  0  0
   -3.3092    1.6039   -1.5749 O   0  0  0  0  0  0  0  0  0  0  0  0
   -2.6926   -0.0398   -0.0701 C   0  0  0  0  0  0  0  0  0  0  0  0
   -1.3093    0.4885   -0.0024 C   0  0  0  0  0  0  0  0  0  0  0  0
   -0.2365   -0.2677   -0.4978 C   0  0  0  0  0  0  0  0  0  0  0  0
    1.0670    0.2324   -0.4329 C   0  0  0  0  0  0  0  0  0  0  0  0
    1.3148    1.4944    0.1364 C   0  0  0  0  0  0  0  0  0  0  0  0
    2.6069    2.0355    0.2073 O   0  0  0  0  0  0  0  0  0  0  0  0
    3.7899    1.2974    0.3599 C   0  0  0  0  0  0  0  0  0  0  0  0
    3.8265    0.0899    1.0785 C   0  0  0  0  0  0  0  0  0  0  0  0
    5.0290   -0.6079    1.2219 C   0  0  0  0  0  0  0  0  0  0  0  0
    6.2129   -0.1101    0.6651 C   0  0  0  0  0  0  0  0  0  0  0  0
    7.3912   -0.8542    0.8385 O   0  0  0  0  0  0  0  0  0  0  0  0
    8.6762   -0.4905    0.3387 C   0  0  0  0  0  0  0  0  0  0  0  0
    9.0736    0.7190    0.8801 F   0  0  0  0  0  0  0  0  0  0  0  0
    9.5893   -1.4618    0.7010 F   0  0  0  0  0  0  0  0  0  0  0  0
    8.6436   -0.4018   -1.0414 F   0  0  0  0  0  0  0  0  0  0  0  0
    6.1784    1.1098   -0.0381 C   0  0  0  0  0  0  0  0  0  0  0  0
    4.9749    1.8072   -0.1807 C   0  0  0  0  0  0  0  0  0  0  0  0
    0.2393    2.2582    0.6036 C   0  0  0  0  0  0  0  0  0  0  0  0
   -1.0648    1.7590    0.5399 C   0  0  0  0  0  0  0  0  0  0  0  0
  1  2  1  0
  2  3  4  0
  3  4  4  0
  4  5  4  0
  5  6  4  0
  6  7  4  0
  7  8  4  0
  8  9  4  0
  9 10  4  0
 10 11  2  0
 10 12  4  0
 12 13  1  0
 13 14  4  0
 14 15  4  0
 15 16  4  0
 16 17  1  0
 17 18  1  0
 18 19  4  0
 19 20  4  0
 20 21  4  0
 21 22  1  0
 22 23  1  0
 23 24  1  0
 23 25  1  0
 23 26  1  0
 21 27  4  0
 27 28  4  0
 16 29  4  0
 29 30  4  0
  9  4  4  0
 12  2  4  0
 28 18  4  0
 30 13  4  0
M  END
>  <SMILES>  (4) 
Cc2[nH]c1ccccc1c(=O)c2c4ccc(Oc3ccc(OC(F)(F)F)cc3)cc4

>  <NumConformers>  (4) 
16

>  <EnergyUnits>  (4) 
RDKit_forcefield

>  <Processing_Time>  (4) 
32.1s

>  <Original_Conformers>  (4) 
500

>  <Total_Conformers>  (4) 
16

>  <Energy>  (4) 
70.474230359018122

>  <Energy_Unit>  (4) 
RDKit_forcefield

>  <Rank>  (4) 
4

>  <Conformer_Index>  (4) 
3

$$$$
PG-203
     RDKit          3D

 30 33  0  0  0  0  0  0  0  0999 V2000
   -2.4369   -1.2301    2.3271 C   0  0  0  0  0  0  0  0  0  0  0  0
   -3.1821   -0.8627    1.0693 C   0  0  0  0  0  0  0  0  0  0  0  0
   -4.4432   -1.3501    0.8809 N   0  0  0  0  0  0  0  0  0  0  0  0
   -5.1675   -1.0711   -0.2396 C   0  0  0  0  0  0  0  0  0  0  0  0
   -6.4579   -1.6034   -0.3988 C   0  0  0  0  0  0  0  0  0  0  0  0
   -7.2004   -1.3210   -1.5476 C   0  0  0  0  0  0  0  0  0  0  0  0
   -6.6641   -0.5063   -2.5461 C   0  0  0  0  0  0  0  0  0  0  0  0
   -5.3827    0.0315   -2.4016 C   0  0  0  0  0  0  0  0  0  0  0  0
   -4.6221   -0.2449   -1.2485 C   0  0  0  0  0  0  0  0  0  0  0  0
   -3.3331    0.2862   -1.0696 C   0  0  0  0  0  0  0  0  0  0  0  0
   -2.8304    1.0410   -1.9487 O   0  0  0  0  0  0  0  0  0  0  0  0
   -2.6049   -0.0122    0.0973 C   0  0  0  0  0  0  0  0  0  0  0  0
   -1.2524    0.5636    0.2867 C   0  0  0  0  0  0  0  0  0  0  0  0
   -0.2013    0.1904   -0.5641 C   0  0  0  0  0  0  0  0  0  0  0  0
    1.0744    0.7336   -0.3876 C   0  0  0  0  0  0  0  0  0  0  0  0
    1.3166    1.6527    0.6491 C   0  0  0  0  0  0  0  0  0  0  0  0
    2.5792    2.2299    0.8491 O   0  0  0  0  0  0  0  0  0  0  0  0
    3.8083    1.6100    0.5796 C   0  0  0  0  0  0  0  0  0  0  0  0
    4.8998    2.4082    0.2229 C   0  0  0  0  0  0  0  0  0  0  0  0
    6.1447    1.8291   -0.0395 C   0  0  0  0  0  0  0  0  0  0  0  0
    6.3224    0.4444    0.0638 C   0  0  0  0  0  0  0  0  0  0  0  0
    7.5938   -0.0834   -0.2134 O   0  0  0  0  0  0  0  0  0  0  0  0
    7.9429   -1.4647   -0.1553 C   0  0  0  0  0  0  0  0  0  0  0  0
    7.1754   -2.1887   -1.0501 F   0  0  0  0  0  0  0  0  0  0  0  0
    9.2743   -1.6052   -0.4954 F   0  0  0  0  0  0  0  0  0  0  0  0
    7.7567   -1.9500    1.1267 F   0  0  0  0  0  0  0  0  0  0  0  0
    5.2295   -0.3594    0.4426 C   0  0  0  0  0  0  0  0  0  0  0  0
    3.9847    0.2209    0.7043 C   0  0  0  0  0  0  0  0  0  0  0  0
    0.2595    2.0438    1.4786 C   0  0  0  0  0  0  0  0  0  0  0  0
   -1.0166    1.5011    1.3035 C   0  0  0  0  0  0  0  0  0  0  0  0
  1  2  1  0
  2  3  4  0
  3  4  4  0
  4  5  4  0
  5  6  4  0
  6  7  4  0
  7  8  4  0
  8  9  4  0
  9 10  4  0
 10 11  2  0
 10 12  4  0
 12 13  1  0
 13 14  4  0
 14 15  4  0
 15 16  4  0
 16 17  1  0
 17 18  1  0
 18 19  4  0
 19 20  4  0
 20 21  4  0
 21 22  1  0
 22 23  1  0
 23 24  1  0
 23 25  1  0
 23 26  1  0
 21 27  4  0
 27 28  4  0
 16 29  4  0
 29 30  4  0
  9  4  4  0
 12  2  4  0
 28 18  4  0
 30 13  4  0
M  END
>  <SMILES>  (5) 
Cc2[nH]c1ccccc1c(=O)c2c4ccc(Oc3ccc(OC(F)(F)F)cc3)cc4

>  <NumConformers>  (5) 
16

>  <EnergyUnits>  (5) 
RDKit_forcefield

>  <Processing_Time>  (5) 
32.1s

>  <Original_Conformers>  (5) 
500

>  <Total_Conformers>  (5) 
16

>  <Energy>  (5) 
70.4894189472584

>  <Energy_Unit>  (5) 
RDKit_forcefield

>  <Rank>  (5) 
5

>  <Conformer_Index>  (5) 
4

$$$$
PG-203
     RDKit          3D

 30 33  0  0  0  0  0  0  0  0999 V2000
   -2.0907   -2.8687   -0.0286 C   0  0  0  0  0  0  0  0  0  0  0  0
   -3.0102   -1.6763   -0.1004 C   0  0  0  0  0  0  0  0  0  0  0  0
   -4.3381   -1.8476    0.1657 N   0  0  0  0  0  0  0  0  0  0  0  0
   -5.2225   -0.8108    0.1346 C   0  0  0  0  0  0  0  0  0  0  0  0
   -6.5792   -1.0290    0.4269 C   0  0  0  0  0  0  0  0  0  0  0  0
   -7.4863    0.0326    0.3984 C   0  0  0  0  0  0  0  0  0  0  0  0
   -7.0497    1.3192    0.0782 C   0  0  0  0  0  0  0  0  0  0  0  0
   -5.7038    1.5517   -0.2160 C   0  0  0  0  0  0  0  0  0  0  0  0
   -4.7775    0.4907   -0.1909 C   0  0  0  0  0  0  0  0  0  0  0  0
   -3.4185    0.6901   -0.4889 C   0  0  0  0  0  0  0  0  0  0  0  0
   -2.9993    1.8404   -0.7995 O   0  0  0  0  0  0  0  0  0  0  0  0
   -2.5239   -0.3959   -0.4543 C   0  0  0  0  0  0  0  0  0  0  0  0
   -1.0949   -0.1816   -0.7846 C   0  0  0  0  0  0  0  0  0  0  0  0
   -0.5402   -0.7543   -1.9389 C   0  0  0  0  0  0  0  0  0  0  0  0
    0.8072   -0.5490   -2.2488 C   0  0  0  0  0  0  0  0  0  0  0  0
    1.6189    0.2214   -1.4086 C   0  0  0  0  0  0  0  0  0  0  0  0
    2.9628    0.4142   -1.7612 O   0  0  0  0  0  0  0  0  0  0  0  0
    4.0198    0.6087   -0.8599 C   0  0  0  0  0  0  0  0  0  0  0  0
    4.0268    0.0213    0.4172 C   0  0  0  0  0  0  0  0  0  0  0  0
    5.1061    0.2249    1.2825 C   0  0  0  0  0  0  0  0  0  0  0  0
    6.2028    1.0104    0.8775 C   0  0  0  0  0  0  0  0  0  0  0  0
    7.3120    1.2507    1.7045 O   0  0  0  0  0  0  0  0  0  0  0  0
    7.4748    0.7510    3.0301 C   0  0  0  0  0  0  0  0  0  0  0  0
    7.4783   -0.6324    3.0211 F   0  0  0  0  0  0  0  0  0  0  0  0
    6.4563    1.2151    3.8432 F   0  0  0  0  0  0  0  0  0  0  0  0
    8.6826    1.1959    3.5315 F   0  0  0  0  0  0  0  0  0  0  0  0
    6.1981    1.5763   -0.4029 C   0  0  0  0  0  0  0  0  0  0  0  0
    5.1188    1.3717   -1.2672 C   0  0  0  0  0  0  0  0  0  0  0  0
    1.0565    0.8183   -0.2659 C   0  0  0  0  0  0  0  0  0  0  0  0
   -0.2908    0.6140    0.0450 C   0  0  0  0  0  0  0  0  0  0  0  0
  1  2  1  0
  2  3  4  0
  3  4  4  0
  4  5  4  0
  5  6  4  0
  6  7  4  0
  7  8  4  0
  8  9  4  0
  9 10  4  0
 10 11  2  0
 10 12  4  0
 12 13  1  0
 13 14  4  0
 14 15  4  0
 15 16  4  0
 16 17  1  0
 17 18  1  0
 18 19  4  0
 19 20  4  0
 20 21  4  0
 21 22  1  0
 22 23  1  0
 23 24  1  0
 23 25  1  0
 23 26  1  0
 21 27  4  0
 27 28  4  0
 16 29  4  0
 29 30  4  0
  9  4  4  0
 12  2  4  0
 28 18  4  0
 30 13  4  0
M  END
>  <SMILES>  (6) 
Cc2[nH]c1ccccc1c(=O)c2c4ccc(Oc3ccc(OC(F)(F)F)cc3)cc4

>  <NumConformers>  (6) 
16

>  <EnergyUnits>  (6) 
RDKit_forcefield

>  <Processing_Time>  (6) 
32.1s

>  <Original_Conformers>  (6) 
500

>  <Total_Conformers>  (6) 
16

>  <Energy>  (6) 
70.489418950181644

>  <Energy_Unit>  (6) 
RDKit_forcefield

>  <Rank>  (6) 
6

>  <Conformer_Index>  (6) 
5

$$$$
PG-203
     RDKit          3D

 30 33  0  0  0  0  0  0  0  0999 V2000
   -2.2735   -2.9263   -0.2161 C   0  0  0  0  0  0  0  0  0  0  0  0
   -3.1567   -1.7049   -0.2351 C   0  0  0  0  0  0  0  0  0  0  0  0
   -4.5003   -1.8568   -0.0477 N   0  0  0  0  0  0  0  0  0  0  0  0
   -5.3546   -0.7947   -0.0372 C   0  0  0  0  0  0  0  0  0  0  0  0
   -6.7296   -0.9946    0.1711 C   0  0  0  0  0  0  0  0  0  0  0  0
   -7.6060    0.0928    0.1851 C   0  0  0  0  0  0  0  0  0  0  0  0
   -7.1204    1.3870   -0.0086 C   0  0  0  0  0  0  0  0  0  0  0  0
   -5.7558    1.6017   -0.2182 C   0  0  0  0  0  0  0  0  0  0  0  0
   -4.8599    0.5146   -0.2346 C   0  0  0  0  0  0  0  0  0  0  0  0
   -3.4829    0.6962   -0.4500 C   0  0  0  0  0  0  0  0  0  0  0  0
   -3.0188    1.8544   -0.6460 O   0  0  0  0  0  0  0  0  0  0  0  0
   -2.6199   -0.4156   -0.4605 C   0  0  0  0  0  0  0  0  0  0  0  0
   -1.1711   -0.2188   -0.7035 C   0  0  0  0  0  0  0  0  0  0  0  0
   -0.5742   -0.7144   -1.8724 C   0  0  0  0  0  0  0  0  0  0  0  0
    0.7920   -0.5256   -2.0998 C   0  0  0  0  0  0  0  0  0  0  0  0
    1.5803    0.1508   -1.1621 C   0  0  0  0  0  0  0  0  0  0  0  0
    2.9446    0.3308   -1.4333 O   0  0  0  0  0  0  0  0  0  0  0  0
    3.9600    0.4213   -0.4697 C   0  0  0  0  0  0  0  0  0  0  0  0
    5.0977    1.1808   -0.7611 C   0  0  0  0  0  0  0  0  0  0  0  0
    6.1391    1.2848    0.1662 C   0  0  0  0  0  0  0  0  0  0  0  0
    6.0594    0.6127    1.4014 C   0  0  0  0  0  0  0  0  0  0  0  0
    7.0730    0.6819    2.3709 O   0  0  0  0  0  0  0  0  0  0  0  0
    8.2850    1.4224    2.2442 C   0  0  0  0  0  0  0  0  0  0  0  0
    9.0158    0.9598    1.1646 F   0  0  0  0  0  0  0  0  0  0  0  0
    9.0340    1.2560    3.3929 F   0  0  0  0  0  0  0  0  0  0  0  0
    8.0071    2.7681    2.0842 F   0  0  0  0  0  0  0  0  0  0  0  0
    4.9282   -0.1626    1.6821 C   0  0  0  0  0  0  0  0  0  0  0  0
    3.8877   -0.2655    0.7546 C   0  0  0  0  0  0  0  0  0  0  0  0
    0.9770    0.6716   -0.0031 C   0  0  0  0  0  0  0  0  0  0  0  0
   -0.3891    0.4838    0.2253 C   0  0  0  0  0  0  0  0  0  0  0  0
  1  2  1  0
  2  3  4  0
  3  4  4  0
  4  5  4  0
  5  6  4  0
  6  7  4  0
  7  8  4  0
  8  9  4  0
  9 10  4  0
 10 11  2  0
 10 12  4  0
 12 13  1  0
 13 14  4  0
 14 15  4  0
 15 16  4  0
 16 17  1  0
 17 18  1  0
 18 19  4  0
 19 20  4  0
 20 21  4  0
 21 22  1  0
 22 23  1  0
 23 24  1  0
 23 25  1  0
 23 26  1  0
 21 27  4  0
 27 28  4  0
 16 29  4  0
 29 30  4  0
  9  4  4  0
 12  2  4  0
 28 18  4  0
 30 13  4  0
M  END
>  <SMILES>  (7) 
Cc2[nH]c1ccccc1c(=O)c2c4ccc(Oc3ccc(OC(F)(F)F)cc3)cc4

>  <NumConformers>  (7) 
16

>  <EnergyUnits>  (7) 
RDKit_forcefield

>  <Processing_Time>  (7) 
32.1s

>  <Original_Conformers>  (7) 
500

>  <Total_Conformers>  (7) 
16

>  <Energy>  (7) 
70.50393620443198

>  <Energy_Unit>  (7) 
RDKit_forcefield

>  <Rank>  (7) 
7

>  <Conformer_Index>  (7) 
6

$$$$
PG-203
     RDKit          3D

 30 33  0  0  0  0  0  0  0  0999 V2000
   -2.4052   -2.6849    0.9579 C   0  0  0  0  0  0  0  0  0  0  0  0
   -3.2180   -1.5927    0.3108 C   0  0  0  0  0  0  0  0  0  0  0  0
   -4.4963   -1.8642   -0.0837 N   0  0  0  0  0  0  0  0  0  0  0  0
   -5.2815   -0.9287   -0.6889 C   0  0  0  0  0  0  0  0  0  0  0  0
   -6.5881   -1.2539   -1.0901 C   0  0  0  0  0  0  0  0  0  0  0  0
   -7.3930   -0.2976   -1.7131 C   0  0  0  0  0  0  0  0  0  0  0  0
   -6.9036    0.9897   -1.9409 C   0  0  0  0  0  0  0  0  0  0  0  0
   -5.6068    1.3285   -1.5465 C   0  0  0  0  0  0  0  0  0  0  0  0
   -4.7833    0.3742   -0.9173 C   0  0  0  0  0  0  0  0  0  0  0  0
   -3.4771    0.6854   -0.5023 C   0  0  0  0  0  0  0  0  0  0  0  0
   -3.0150    1.8475   -0.6795 O   0  0  0  0  0  0  0  0  0  0  0  0
   -2.6855   -0.2954    0.1242 C   0  0  0  0  0  0  0  0  0  0  0  0
   -1.3143    0.0438    0.5734 C   0  0  0  0  0  0  0  0  0  0  0  0
   -1.0020    0.0699    1.9409 C   0  0  0  0  0  0  0  0  0  0  0  0
    0.2914    0.3919    2.3616 C   0  0  0  0  0  0  0  0  0  0  0  0
    1.2900    0.6829    1.4254 C   0  0  0  0  0  0  0  0  0  0  0  0
    2.5720    1.0139    1.8884 O   0  0  0  0  0  0  0  0  0  0  0  0
    3.7720    0.7658    1.2058 C   0  0  0  0  0  0  0  0  0  0  0  0
    3.9319   -0.3464    0.3613 C   0  0  0  0  0  0  0  0  0  0  0  0
    5.1493   -0.5679   -0.2885 C   0  0  0  0  0  0  0  0  0  0  0  0
    6.2277    0.3042   -0.0987 C   0  0  0  0  0  0  0  0  0  0  0  0
    7.4264    0.0342   -0.7787 O   0  0  0  0  0  0  0  0  0  0  0  0
    8.6149    0.8177   -0.6961 C   0  0  0  0  0  0  0  0  0  0  0  0
    9.5831    0.2495   -1.5010 F   0  0  0  0  0  0  0  0  0  0  0  0
    9.0784    0.8452    0.6071 F   0  0  0  0  0  0  0  0  0  0  0  0
    8.3685    2.1058   -1.1365 F   0  0  0  0  0  0  0  0  0  0  0  0
    6.0722    1.4076    0.7630 C   0  0  0  0  0  0  0  0  0  0  0  0
    4.8538    1.6279    1.4128 C   0  0  0  0  0  0  0  0  0  0  0  0
    0.9704    0.6837    0.0556 C   0  0  0  0  0  0  0  0  0  0  0  0
   -0.3227    0.3621   -0.3664 C   0  0  0  0  0  0  0  0  0  0  0  0
  1  2  1  0
  2  3  4  0
  3  4  4  0
  4  5  4  0
  5  6  4  0
  6  7  4  0
  7  8  4  0
  8  9  4  0
  9 10  4  0
 10 11  2  0
 10 12  4  0
 12 13  1  0
 13 14  4  0
 14 15  4  0
 15 16  4  0
 16 17  1  0
 17 18  1  0
 18 19  4  0
 19 20  4  0
 20 21  4  0
 21 22  1  0
 22 23  1  0
 23 24  1  0
 23 25  1  0
 23 26  1  0
 21 27  4  0
 27 28  4  0
 16 29  4  0
 29 30  4  0
  9  4  4  0
 12  2  4  0
 28 18  4  0
 30 13  4  0
M  END
>  <SMILES>  (8) 
Cc2[nH]c1ccccc1c(=O)c2c4ccc(Oc3ccc(OC(F)(F)F)cc3)cc4

>  <NumConformers>  (8) 
16

>  <EnergyUnits>  (8) 
RDKit_forcefield

>  <Processing_Time>  (8) 
32.1s

>  <Original_Conformers>  (8) 
500

>  <Total_Conformers>  (8) 
16

>  <Energy>  (8) 
70.503936205628548

>  <Energy_Unit>  (8) 
RDKit_forcefield

>  <Rank>  (8) 
8

>  <Conformer_Index>  (8) 
7

$$$$
PG-203
     RDKit          3D

 30 33  0  0  0  0  0  0  0  0999 V2000
   -3.0521   -2.7751    1.2750 C   0  0  0  0  0  0  0  0  0  0  0  0
   -3.4785   -1.5734    0.4710 C   0  0  0  0  0  0  0  0  0  0  0  0
   -4.7700   -1.4925    0.0364 N   0  0  0  0  0  0  0  0  0  0  0  0
   -5.2192   -0.4429   -0.7083 C   0  0  0  0  0  0  0  0  0  0  0  0
   -6.5538   -0.4053   -1.1454 C   0  0  0  0  0  0  0  0  0  0  0  0
   -7.0150    0.6679   -1.9111 C   0  0  0  0  0  0  0  0  0  0  0  0
   -6.1512    1.7117   -2.2470 C   0  0  0  0  0  0  0  0  0  0  0  0
   -4.8215    1.6890   -1.8186 C   0  0  0  0  0  0  0  0  0  0  0  0
   -4.3423    0.6130   -1.0459 C   0  0  0  0  0  0  0  0  0  0  0  0
   -3.0125    0.5639   -0.5933 C   0  0  0  0  0  0  0  0  0  0  0  0
   -2.2140    1.5033   -0.8675 O   0  0  0  0  0  0  0  0  0  0  0  0
   -2.5717   -0.5277    0.1780 C   0  0  0  0  0  0  0  0  0  0  0  0
   -1.1722   -0.5648    0.6647 C   0  0  0  0  0  0  0  0  0  0  0  0
   -0.1119   -0.6799   -0.2465 C   0  0  0  0  0  0  0  0  0  0  0  0
    1.2089   -0.7114    0.2098 C   0  0  0  0  0  0  0  0  0  0  0  0
    1.4865   -0.6111    1.5851 C   0  0  0  0  0  0  0  0  0  0  0  0
    2.7971   -0.6548    2.0828 O   0  0  0  0  0  0  0  0  0  0  0  0
    3.9363   -0.1797    1.4162 C   0  0  0  0  0  0  0  0  0  0  0  0
    3.8829    0.9203    0.5425 C   0  0  0  0  0  0  0  0  0  0  0  0
    5.0429    1.3755   -0.0918 C   0  0  0  0  0  0  0  0  0  0  0  0
    6.2785    0.7438    0.1489 C   0  0  0  0  0  0  0  0  0  0  0  0
    7.4743    1.1561   -0.4613 O   0  0  0  0  0  0  0  0  0  0  0  0
    7.5984    2.2361   -1.3841 C   0  0  0  0  0  0  0  0  0  0  0  0
    7.2146    3.4222   -0.7844 F   0  0  0  0  0  0  0  0  0  0  0  0
    6.8199    1.9994   -2.5029 F   0  0  0  0  0  0  0  0  0  0  0  0
    8.9191    2.3419   -1.7749 F   0  0  0  0  0  0  0  0  0  0  0  0
    6.3278   -0.3387    1.0352 C   0  0  0  0  0  0  0  0  0  0  0  0
    5.1676   -0.7925    1.6690 C   0  0  0  0  0  0  0  0  0  0  0  0
    0.4258   -0.5111    2.4925 C   0  0  0  0  0  0  0  0  0  0  0  0
   -0.8954   -0.4789    2.0374 C   0  0  0  0  0  0  0  0  0  0  0  0
  1  2  1  0
  2  3  4  0
  3  4  4  0
  4  5  4  0
  5  6  4  0
  6  7  4  0
  7  8  4  0
  8  9  4  0
  9 10  4  0
 10 11  2  0
 10 12  4  0
 12 13  1  0
 13 14  4  0
 14 15  4  0
 15 16  4  0
 16 17  1  0
 17 18  1  0
 18 19  4  0
 19 20  4  0
 20 21  4  0
 21 22  1  0
 22 23  1  0
 23 24  1  0
 23 25  1  0
 23 26  1  0
 21 27  4  0
 27 28  4  0
 16 29  4  0
 29 30  4  0
  9  4  4  0
 12  2  4  0
 28 18  4  0
 30 13  4  0
M  END
>  <SMILES>  (9) 
Cc2[nH]c1ccccc1c(=O)c2c4ccc(Oc3ccc(OC(F)(F)F)cc3)cc4

>  <NumConformers>  (9) 
16

>  <EnergyUnits>  (9) 
RDKit_forcefield

>  <Processing_Time>  (9) 
32.1s

>  <Original_Conformers>  (9) 
500

>  <Total_Conformers>  (9) 
16

>  <Energy>  (9) 
70.510067937134096

>  <Energy_Unit>  (9) 
RDKit_forcefield

>  <Rank>  (9) 
9

>  <Conformer_Index>  (9) 
8

$$$$
PG-203
     RDKit          3D

 30 33  0  0  0  0  0  0  0  0999 V2000
   -3.1255   -2.4286    1.7399 C   0  0  0  0  0  0  0  0  0  0  0  0
   -3.5201   -1.3768    0.7348 C   0  0  0  0  0  0  0  0  0  0  0  0
   -4.8457   -1.1353    0.5157 N   0  0  0  0  0  0  0  0  0  0  0  0
   -5.2732   -0.1880   -0.3663 C   0  0  0  0  0  0  0  0  0  0  0  0
   -6.6475    0.0366   -0.5525 C   0  0  0  0  0  0  0  0  0  0  0  0
   -7.0872    1.0090   -1.4534 C   0  0  0  0  0  0  0  0  0  0  0  0
   -6.1624    1.7646   -2.1760 C   0  0  0  0  0  0  0  0  0  0  0  0
   -4.7924    1.5519   -2.0025 C   0  0  0  0  0  0  0  0  0  0  0  0
   -4.3342    0.5748   -1.0972 C   0  0  0  0  0  0  0  0  0  0  0  0
   -2.9633    0.3315   -0.9051 C   0  0  0  0  0  0  0  0  0  0  0  0
   -2.1048    0.9882   -1.5587 O   0  0  0  0  0  0  0  0  0  0  0  0
   -2.5448   -0.6547    0.0076 C   0  0  0  0  0  0  0  0  0  0  0  0
   -1.0977   -0.9162    0.1931 C   0  0  0  0  0  0  0  0  0  0  0  0
   -0.5424   -2.1441   -0.1971 C   0  0  0  0  0  0  0  0  0  0  0  0
    0.8233   -2.3860   -0.0235 C   0  0  0  0  0  0  0  0  0  0  0  0
    1.6541   -1.4019    0.5239 C   0  0  0  0  0  0  0  0  0  0  0  0
    3.0164   -1.6890    0.6950 O   0  0  0  0  0  0  0  0  0  0  0  0
    4.0570   -0.7494    0.6517 C   0  0  0  0  0  0  0  0  0  0  0  0
    5.2087   -0.9865    1.4087 C   0  0  0  0  0  0  0  0  0  0  0  0
    6.2732   -0.0810    1.3809 C   0  0  0  0  0  0  0  0  0  0  0  0
    6.2096    1.0691    0.5854 C   0  0  0  0  0  0  0  0  0  0  0  0
    7.3069    1.9453    0.5978 O   0  0  0  0  0  0  0  0  0  0  0  0
    7.4036    3.1551   -0.1510 C   0  0  0  0  0  0  0  0  0  0  0  0
    6.3908    4.0239    0.2138 F   0  0  0  0  0  0  0  0  0  0  0  0
    8.6202    3.7519    0.1170 F   0  0  0  0  0  0  0  0  0  0  0  0
    7.3285    2.8847   -1.5056 F   0  0  0  0  0  0  0  0  0  0  0  0
    5.0589    1.2998   -0.1934 C   0  0  0  0  0  0  0  0  0  0  0  0
    3.9946    0.3935   -0.1645 C   0  0  0  0  0  0  0  0  0  0  0  0
    1.0954   -0.1760    0.9282 C   0  0  0  0  0  0  0  0  0  0  0  0
   -0.2702    0.0669    0.7557 C   0  0  0  0  0  0  0  0  0  0  0  0
  1  2  1  0
  2  3  4  0
  3  4  4  0
  4  5  4  0
  5  6  4  0
  6  7  4  0
  7  8  4  0
  8  9  4  0
  9 10  4  0
 10 11  2  0
 10 12  4  0
 12 13  1  0
 13 14  4  0
 14 15  4  0
 15 16  4  0
 16 17  1  0
 17 18  1  0
 18 19  4  0
 19 20  4  0
 20 21  4  0
 21 22  1  0
 22 23  1  0
 23 24  1  0
 23 25  1  0
 23 26  1  0
 21 27  4  0
 27 28  4  0
 16 29  4  0
 29 30  4  0
  9  4  4  0
 12  2  4  0
 28 18  4  0
 30 13  4  0
M  END
>  <SMILES>  (10) 
Cc2[nH]c1ccccc1c(=O)c2c4ccc(Oc3ccc(OC(F)(F)F)cc3)cc4

>  <NumConformers>  (10) 
16

>  <EnergyUnits>  (10) 
RDKit_forcefield

>  <Processing_Time>  (10) 
32.1s

>  <Original_Conformers>  (10) 
500

>  <Total_Conformers>  (10) 
16

>  <Energy>  (10) 
70.510067962375544

>  <Energy_Unit>  (10) 
RDKit_forcefield

>  <Rank>  (10) 
10

>  <Conformer_Index>  (10) 
9

$$$$
PG-203
     RDKit          3D

 30 33  0  0  0  0  0  0  0  0999 V2000
   -2.8063   -1.4149    2.2945 C   0  0  0  0  0  0  0  0  0  0  0  0
   -3.3687   -0.8494    1.0153 C   0  0  0  0  0  0  0  0  0  0  0  0
   -4.6975   -0.5433    0.9553 N   0  0  0  0  0  0  0  0  0  0  0  0
   -5.2754   -0.0439   -0.1738 C   0  0  0  0  0  0  0  0  0  0  0  0
   -6.6498    0.2463   -0.1963 C   0  0  0  0  0  0  0  0  0  0  0  0
   -7.2442    0.7551   -1.3532 C   0  0  0  0  0  0  0  0  0  0  0  0
   -6.4748    0.9791   -2.4962 C   0  0  0  0  0  0  0  0  0  0  0  0
   -5.1065    0.6965   -2.4888 C   0  0  0  0  0  0  0  0  0  0  0  0
   -4.4934    0.1827   -1.3292 C   0  0  0  0  0  0  0  0  0  0  0  0
   -3.1183   -0.1051   -1.2871 C   0  0  0  0  0  0  0  0  0  0  0  0
   -2.3950    0.1046   -2.3010 O   0  0  0  0  0  0  0  0  0  0  0  0
   -2.5423   -0.6161   -0.1090 C   0  0  0  0  0  0  0  0  0  0  0  0
   -1.0886   -0.9021   -0.0672 C   0  0  0  0  0  0  0  0  0  0  0  0
   -0.5475   -1.9220   -0.8640 C   0  0  0  0  0  0  0  0  0  0  0  0
    0.8237   -2.1913   -0.8276 C   0  0  0  0  0  0  0  0  0  0  0  0
    1.6734   -1.4368   -0.0108 C   0  0  0  0  0  0  0  0  0  0  0  0
    3.0409   -1.7483    0.0087 O   0  0  0  0  0  0  0  0  0  0  0  0
    4.0793   -0.8359    0.2474 C   0  0  0  0  0  0  0  0  0  0  0  0
    5.2569   -1.2986    0.8433 C   0  0  0  0  0  0  0  0  0  0  0  0
    6.3196   -0.4233    1.0844 C   0  0  0  0  0  0  0  0  0  0  0  0
    6.2281    0.9256    0.7215 C   0  0  0  0  0  0  0  0  0  0  0  0
    7.3251    1.7603    0.9895 O   0  0  0  0  0  0  0  0  0  0  0  0
    7.3954    3.1517    0.6852 C   0  0  0  0  0  0  0  0  0  0  0  0
    8.6206    3.6391    1.0969 F   0  0  0  0  0  0  0  0  0  0  0  0
    6.3959    3.8369    1.3526 F   0  0  0  0  0  0  0  0  0  0  0  0
    7.2727    3.3482   -0.6786 F   0  0  0  0  0  0  0  0  0  0  0  0
    5.0507    1.3895    0.1029 C   0  0  0  0  0  0  0  0  0  0  0  0
    3.9882    0.5130   -0.1374 C   0  0  0  0  0  0  0  0  0  0  0  0
    1.1293   -0.4234    0.7987 C   0  0  0  0  0  0  0  0  0  0  0  0
   -0.2416   -0.1532    0.7634 C   0  0  0  0  0  0  0  0  0  0  0  0
  1  2  1  0
  2  3  4  0
  3  4  4  0
  4  5  4  0
  5  6  4  0
  6  7  4  0
  7  8  4  0
  8  9  4  0
  9 10  4  0
 10 11  2  0
 10 12  4  0
 12 13  1  0
 13 14  4  0
 14 15  4  0
 15 16  4  0
 16 17  1  0
 17 18  1  0
 18 19  4  0
 19 20  4  0
 20 21  4  0
 21 22  1  0
 22 23  1  0
 23 24  1  0
 23 25  1  0
 23 26  1  0
 21 27  4  0
 27 28  4  0
 16 29  4  0
 29 30  4  0
  9  4  4  0
 12  2  4  0
 28 18  4  0
 30 13  4  0
M  END
>  <SMILES>  (11) 
Cc2[nH]c1ccccc1c(=O)c2c4ccc(Oc3ccc(OC(F)(F)F)cc3)cc4

>  <NumConformers>  (11) 
16

>  <EnergyUnits>  (11) 
RDKit_forcefield

>  <Processing_Time>  (11) 
32.1s

>  <Original_Conformers>  (11) 
500

>  <Total_Conformers>  (11) 
16

>  <Energy>  (11) 
70.517163356337505

>  <Energy_Unit>  (11) 
RDKit_forcefield

>  <Rank>  (11) 
11

>  <Conformer_Index>  (11) 
10

$$$$
PG-203
     RDKit          3D

 30 33  0  0  0  0  0  0  0  0999 V2000
   -2.4883   -2.9180    0.4805 C   0  0  0  0  0  0  0  0  0  0  0  0
   -3.1961   -1.6653    0.0306 C   0  0  0  0  0  0  0  0  0  0  0  0
   -4.4379   -1.7708   -0.5262 N   0  0  0  0  0  0  0  0  0  0  0  0
   -5.1411   -0.6789   -0.9401 C   0  0  0  0  0  0  0  0  0  0  0  0
   -6.4219   -0.8315   -1.4970 C   0  0  0  0  0  0  0  0  0  0  0  0
   -7.1450    0.2864   -1.9189 C   0  0  0  0  0  0  0  0  0  0  0  0
   -6.5986    1.5644   -1.7899 C   0  0  0  0  0  0  0  0  0  0  0  0
   -5.3256    1.7321   -1.2390 C   0  0  0  0  0  0  0  0  0  0  0  0
   -4.5846    0.6138   -0.8090 C   0  0  0  0  0  0  0  0  0  0  0  0
   -3.2988    0.7480   -0.2575 C   0  0  0  0  0  0  0  0  0  0  0  0
   -2.7728    1.8908   -0.1453 O   0  0  0  0  0  0  0  0  0  0  0  0
   -2.5893   -0.3938    0.1592 C   0  0  0  0  0  0  0  0  0  0  0  0
   -1.2274   -0.2456    0.7250 C   0  0  0  0  0  0  0  0  0  0  0  0
   -1.0408    0.4104    1.9509 C   0  0  0  0  0  0  0  0  0  0  0  0
    0.2432    0.5532    2.4846 C   0  0  0  0  0  0  0  0  0  0  0  0
    1.3568    0.0599    1.7955 C   0  0  0  0  0  0  0  0  0  0  0  0
    2.6267    0.2100    2.3720 O   0  0  0  0  0  0  0  0  0  0  0  0
    3.8310    0.3380    1.6642 C   0  0  0  0  0  0  0  0  0  0  0  0
    5.0098   -0.1305    2.2529 C   0  0  0  0  0  0  0  0  0  0  0  0
    6.2318   -0.0081    1.5855 C   0  0  0  0  0  0  0  0  0  0  0  0
    6.2976    0.5970    0.3248 C   0  0  0  0  0  0  0  0  0  0  0  0
    7.5513    0.6911   -0.3008 O   0  0  0  0  0  0  0  0  0  0  0  0
    7.7922    1.2755   -1.5790 C   0  0  0  0  0  0  0  0  0  0  0  0
    7.4289    2.6103   -1.5692 F   0  0  0  0  0  0  0  0  0  0  0  0
    7.0806    0.5998   -2.5542 F   0  0  0  0  0  0  0  0  0  0  0  0
    9.1401    1.1832   -1.8671 F   0  0  0  0  0  0  0  0  0  0  0  0
    5.1146    1.0878   -0.2612 C   0  0  0  0  0  0  0  0  0  0  0  0
    3.8927    0.9643    0.4072 C   0  0  0  0  0  0  0  0  0  0  0  0
    1.1688   -0.6102    0.5732 C   0  0  0  0  0  0  0  0  0  0  0  0
   -0.1145   -0.7538    0.0385 C   0  0  0  0  0  0  0  0  0  0  0  0
  1  2  1  0
  2  3  4  0
  3  4  4  0
  4  5  4  0
  5  6  4  0
  6  7  4  0
  7  8  4  0
  8  9  4  0
  9 10  4  0
 10 11  2  0
 10 12  4  0
 12 13  1  0
 13 14  4  0
 14 15  4  0
 15 16  4  0
 16 17  1  0
 17 18  1  0
 18 19  4  0
 19 20  4  0
 20 21  4  0
 21 22  1  0
 22 23  1  0
 23 24  1  0
 23 25  1  0
 23 26  1  0
 21 27  4  0
 27 28  4  0
 16 29  4  0
 29 30  4  0
  9  4  4  0
 12  2  4  0
 28 18  4  0
 30 13  4  0
M  END
>  <SMILES>  (12) 
Cc2[nH]c1ccccc1c(=O)c2c4ccc(Oc3ccc(OC(F)(F)F)cc3)cc4

>  <NumConformers>  (12) 
16

>  <EnergyUnits>  (12) 
RDKit_forcefield

>  <Processing_Time>  (12) 
32.1s

>  <Original_Conformers>  (12) 
500

>  <Total_Conformers>  (12) 
16

>  <Energy>  (12) 
70.517163365139467

>  <Energy_Unit>  (12) 
RDKit_forcefield

>  <Rank>  (12) 
12

>  <Conformer_Index>  (12) 
11

$$$$
PG-203
     RDKit          3D

 30 33  0  0  0  0  0  0  0  0999 V2000
   -2.9919   -2.7658    1.2946 C   0  0  0  0  0  0  0  0  0  0  0  0
   -3.5056   -1.6068    0.4792 C   0  0  0  0  0  0  0  0  0  0  0  0
   -4.8095   -1.6084    0.0754 N   0  0  0  0  0  0  0  0  0  0  0  0
   -5.3359   -0.6013   -0.6775 C   0  0  0  0  0  0  0  0  0  0  0  0
   -6.6805   -0.6486   -1.0820 C   0  0  0  0  0  0  0  0  0  0  0  0
   -7.2206    0.3809   -1.8560 C   0  0  0  0  0  0  0  0  0  0  0  0
   -6.4264    1.4653   -2.2327 C   0  0  0  0  0  0  0  0  0  0  0  0
   -5.0878    1.5270   -1.8371 C   0  0  0  0  0  0  0  0  0  0  0  0
   -4.5294    0.4959   -1.0565 C   0  0  0  0  0  0  0  0  0  0  0  0
   -3.1886    0.5317   -0.6363 C   0  0  0  0  0  0  0  0  0  0  0  0
   -2.4521    1.5094   -0.9478 O   0  0  0  0  0  0  0  0  0  0  0  0
   -2.6676   -0.5172    0.1442 C   0  0  0  0  0  0  0  0  0  0  0  0
   -1.2571   -0.4647    0.5966 C   0  0  0  0  0  0  0  0  0  0  0  0
   -0.2139   -0.5375   -0.3384 C   0  0  0  0  0  0  0  0  0  0  0  0
    1.1170   -0.4846    0.0855 C   0  0  0  0  0  0  0  0  0  0  0  0
    1.4209   -0.3410    1.4513 C   0  0  0  0  0  0  0  0  0  0  0  0
    2.7433   -0.3002    1.9171 O   0  0  0  0  0  0  0  0  0  0  0  0
    3.8373    0.2254    1.2137 C   0  0  0  0  0  0  0  0  0  0  0  0
    5.1076   -0.3111    1.4477 C   0  0  0  0  0  0  0  0  0  0  0  0
    6.2264    0.1940    0.7782 C   0  0  0  0  0  0  0  0  0  0  0  0
    6.0878    1.2607   -0.1312 C   0  0  0  0  0  0  0  0  0  0  0  0
    7.1746    1.8072   -0.8327 O   0  0  0  0  0  0  0  0  0  0  0  0
    8.5274    1.3690   -0.7274 C   0  0  0  0  0  0  0  0  0  0  0  0
    9.3136    2.1366   -1.5645 F   0  0  0  0  0  0  0  0  0  0  0  0
    8.9783    1.5215    0.5716 F   0  0  0  0  0  0  0  0  0  0  0  0
    8.6306    0.0436   -1.1102 F   0  0  0  0  0  0  0  0  0  0  0  0
    4.8181    1.8086   -0.3484 C   0  0  0  0  0  0  0  0  0  0  0  0
    3.7004    1.3026    0.3212 C   0  0  0  0  0  0  0  0  0  0  0  0
    0.3781   -0.2833    2.3828 C   0  0  0  0  0  0  0  0  0  0  0  0
   -0.9532   -0.3355    1.9601 C   0  0  0  0  0  0  0  0  0  0  0  0
  1  2  1  0
  2  3  4  0
  3  4  4  0
  4  5  4  0
  5  6  4  0
  6  7  4  0
  7  8  4  0
  8  9  4  0
  9 10  4  0
 10 11  2  0
 10 12  4  0
 12 13  1  0
 13 14  4  0
 14 15  4  0
 15 16  4  0
 16 17  1  0
 17 18  1  0
 18 19  4  0
 19 20  4  0
 20 21  4  0
 21 22  1  0
 22 23  1  0
 23 24  1  0
 23 25  1  0
 23 26  1  0
 21 27  4  0
 27 28  4  0
 16 29  4  0
 29 30  4  0
  9  4  4  0
 12  2  4  0
 28 18  4  0
 30 13  4  0
M  END
>  <SMILES>  (13) 
Cc2[nH]c1ccccc1c(=O)c2c4ccc(Oc3ccc(OC(F)(F)F)cc3)cc4

>  <NumConformers>  (13) 
16

>  <EnergyUnits>  (13) 
RDKit_forcefield

>  <Processing_Time>  (13) 
32.1s

>  <Original_Conformers>  (13) 
500

>  <Total_Conformers>  (13) 
16

>  <Energy>  (13) 
70.52454858786686

>  <Energy_Unit>  (13) 
RDKit_forcefield

>  <Rank>  (13) 
13

>  <Conformer_Index>  (13) 
12

$$$$
PG-203
     RDKit          3D

 30 33  0  0  0  0  0  0  0  0999 V2000
   -3.0432   -2.5346    1.6212 C   0  0  0  0  0  0  0  0  0  0  0  0
   -3.5393   -1.4551    0.6935 C   0  0  0  0  0  0  0  0  0  0  0  0
   -4.8844   -1.2711    0.5519 N   0  0  0  0  0  0  0  0  0  0  0  0
   -5.4020   -0.3037   -0.2570 C   0  0  0  0  0  0  0  0  0  0  0  0
   -6.7933   -0.1407   -0.3644 C   0  0  0  0  0  0  0  0  0  0  0  0
   -7.3252    0.8521   -1.1902 C   0  0  0  0  0  0  0  0  0  0  0  0
   -6.4763    1.6897   -1.9156 C   0  0  0  0  0  0  0  0  0  0  0  0
   -5.0905    1.5391   -1.8201 C   0  0  0  0  0  0  0  0  0  0  0  0
   -4.5397    0.5423   -0.9910 C   0  0  0  0  0  0  0  0  0  0  0  0
   -3.1505    0.3602   -0.8786 C   0  0  0  0  0  0  0  0  0  0  0  0
   -2.3595    1.0922   -1.5372 O   0  0  0  0  0  0  0  0  0  0  0  0
   -2.6386   -0.6480   -0.0407 C   0  0  0  0  0  0  0  0  0  0  0  0
   -1.1729   -0.8440    0.0606 C   0  0  0  0  0  0  0  0  0  0  0  0
   -0.3667    0.1506    0.6338 C   0  0  0  0  0  0  0  0  0  0  0  0
    1.0161   -0.0305    0.7271 C   0  0  0  0  0  0  0  0  0  0  0  0
    1.6125   -1.2041    0.2318 C   0  0  0  0  0  0  0  0  0  0  0  0
    2.9941   -1.4294    0.3216 O   0  0  0  0  0  0  0  0  0  0  0  0
    3.9844   -0.4369    0.2780 C   0  0  0  0  0  0  0  0  0  0  0  0
    5.1835   -0.6529    0.9649 C   0  0  0  0  0  0  0  0  0  0  0  0
    6.2018    0.3048    0.9348 C   0  0  0  0  0  0  0  0  0  0  0  0
    6.0358    1.4945    0.1993 C   0  0  0  0  0  0  0  0  0  0  0  0
    7.0226    2.4916    0.1342 O   0  0  0  0  0  0  0  0  0  0  0  0
    8.2894    2.4407    0.7868 C   0  0  0  0  0  0  0  0  0  0  0  0
    9.0156    1.3536    0.3344 F   0  0  0  0  0  0  0  0  0  0  0  0
    8.9896    3.5956    0.4968 F   0  0  0  0  0  0  0  0  0  0  0  0
    8.1171    2.3560    2.1568 F   0  0  0  0  0  0  0  0  0  0  0  0
    4.8424    1.6990   -0.5032 C   0  0  0  0  0  0  0  0  0  0  0  0
    3.8251    0.7411   -0.4721 C   0  0  0  0  0  0  0  0  0  0  0  0
    0.8038   -2.2007   -0.3262 C   0  0  0  0  0  0  0  0  0  0  0  0
   -0.5791   -2.0205   -0.4206 C   0  0  0  0  0  0  0  0  0  0  0  0
  1  2  1  0
  2  3  4  0
  3  4  4  0
  4  5  4  0
  5  6  4  0
  6  7  4  0
  7  8  4  0
  8  9  4  0
  9 10  4  0
 10 11  2  0
 10 12  4  0
 12 13  1  0
 13 14  4  0
 14 15  4  0
 15 16  4  0
 16 17  1  0
 17 18  1  0
 18 19  4  0
 19 20  4  0
 20 21  4  0
 21 22  1  0
 22 23  1  0
 23 24  1  0
 23 25  1  0
 23 26  1  0
 21 27  4  0
 27 28  4  0
 16 29  4  0
 29 30  4  0
  9  4  4  0
 12  2  4  0
 28 18  4  0
 30 13  4  0
M  END
>  <SMILES>  (14) 
Cc2[nH]c1ccccc1c(=O)c2c4ccc(Oc3ccc(OC(F)(F)F)cc3)cc4

>  <NumConformers>  (14) 
16

>  <EnergyUnits>  (14) 
RDKit_forcefield

>  <Processing_Time>  (14) 
32.1s

>  <Original_Conformers>  (14) 
500

>  <Total_Conformers>  (14) 
16

>  <Energy>  (14) 
70.52454859068007

>  <Energy_Unit>  (14) 
RDKit_forcefield

>  <Rank>  (14) 
14

>  <Conformer_Index>  (14) 
13

$$$$
PG-203
     RDKit          3D

 30 33  0  0  0  0  0  0  0  0999 V2000
   -2.7444   -1.6731    2.1496 C   0  0  0  0  0  0  0  0  0  0  0  0
   -3.3971   -1.0118    0.9626 C   0  0  0  0  0  0  0  0  0  0  0  0
   -4.7446   -0.7953    0.9840 N   0  0  0  0  0  0  0  0  0  0  0  0
   -5.4020   -0.2170   -0.0608 C   0  0  0  0  0  0  0  0  0  0  0  0
   -6.7923   -0.0236   -0.0023 C   0  0  0  0  0  0  0  0  0  0  0  0
   -7.4678    0.5660   -1.0732 C   0  0  0  0  0  0  0  0  0  0  0  0
   -6.7645    0.9676   -2.2100 C   0  0  0  0  0  0  0  0  0  0  0  0
   -5.3814    0.7830   -2.2825 C   0  0  0  0  0  0  0  0  0  0  0  0
   -4.6867    0.1896   -1.2102 C   0  0  0  0  0  0  0  0  0  0  0  0
   -3.2951   -0.0035   -1.2490 C   0  0  0  0  0  0  0  0  0  0  0  0
   -2.6311    0.3666   -2.2576 O   0  0  0  0  0  0  0  0  0  0  0  0
   -2.6367   -0.5988   -0.1567 C   0  0  0  0  0  0  0  0  0  0  0  0
   -1.1668   -0.7846   -0.1983 C   0  0  0  0  0  0  0  0  0  0  0  0
   -0.3365   -0.0735    0.6809 C   0  0  0  0  0  0  0  0  0  0  0  0
    1.0495   -0.2488    0.6376 C   0  0  0  0  0  0  0  0  0  0  0  0
    1.6243   -1.1264   -0.2992 C   0  0  0  0  0  0  0  0  0  0  0  0
    3.0090   -1.3413   -0.3628 O   0  0  0  0  0  0  0  0  0  0  0  0
    3.9942   -0.3899   -0.0596 C   0  0  0  0  0  0  0  0  0  0  0  0
    5.2244   -0.8313    0.4386 C   0  0  0  0  0  0  0  0  0  0  0  0
    6.2383    0.0833    0.7395 C   0  0  0  0  0  0  0  0  0  0  0  0
    6.0361    1.4615    0.5306 C   0  0  0  0  0  0  0  0  0  0  0  0
    7.0168    2.4252    0.8158 O   0  0  0  0  0  0  0  0  0  0  0  0
    8.3127    2.1507    1.3437 C   0  0  0  0  0  0  0  0  0  0  0  0
    8.9964    3.3414    1.4951 F   0  0  0  0  0  0  0  0  0  0  0  0
    8.2043    1.5385    2.5796 F   0  0  0  0  0  0  0  0  0  0  0  0
    9.0191    1.3383    0.4750 F   0  0  0  0  0  0  0  0  0  0  0  0
    4.8109    1.8983    0.0133 C   0  0  0  0  0  0  0  0  0  0  0  0
    3.7980    0.9832   -0.2868 C   0  0  0  0  0  0  0  0  0  0  0  0
    0.7922   -1.8448   -1.1654 C   0  0  0  0  0  0  0  0  0  0  0  0
   -0.5940   -1.6703   -1.1232 C   0  0  0  0  0  0  0  0  0  0  0  0
  1  2  1  0
  2  3  4  0
  3  4  4  0
  4  5  4  0
  5  6  4  0
  6  7  4  0
  7  8  4  0
  8  9  4  0
  9 10  4  0
 10 11  2  0
 10 12  4  0
 12 13  1  0
 13 14  4  0
 14 15  4  0
 15 16  4  0
 16 17  1  0
 17 18  1  0
 18 19  4  0
 19 20  4  0
 20 21  4  0
 21 22  1  0
 22 23  1  0
 23 24  1  0
 23 25  1  0
 23 26  1  0
 21 27  4  0
 27 28  4  0
 16 29  4  0
 29 30  4  0
  9  4  4  0
 12  2  4  0
 28 18  4  0
 30 13  4  0
M  END
>  <SMILES>  (15) 
Cc2[nH]c1ccccc1c(=O)c2c4ccc(Oc3ccc(OC(F)(F)F)cc3)cc4

>  <NumConformers>  (15) 
16

>  <EnergyUnits>  (15) 
RDKit_forcefield

>  <Processing_Time>  (15) 
32.1s

>  <Original_Conformers>  (15) 
500

>  <Total_Conformers>  (15) 
16

>  <Energy>  (15) 
70.531276002034758

>  <Energy_Unit>  (15) 
RDKit_forcefield

>  <Rank>  (15) 
15

>  <Conformer_Index>  (15) 
14

$$$$
PG-203
     RDKit          3D

 30 33  0  0  0  0  0  0  0  0999 V2000
   -2.5740   -2.5855    1.2405 C   0  0  0  0  0  0  0  0  0  0  0  0
   -3.3002   -1.5302    0.4460 C   0  0  0  0  0  0  0  0  0  0  0  0
   -4.5576   -1.7965   -0.0137 N   0  0  0  0  0  0  0  0  0  0  0  0
   -5.2776   -0.8829   -0.7243 C   0  0  0  0  0  0  0  0  0  0  0  0
   -6.5737   -1.1939   -1.1684 C   0  0  0  0  0  0  0  0  0  0  0  0
   -7.3139   -0.2579   -1.8941 C   0  0  0  0  0  0  0  0  0  0  0  0
   -6.7695    0.9943   -2.1834 C   0  0  0  0  0  0  0  0  0  0  0  0
   -5.4813    1.3178   -1.7496 C   0  0  0  0  0  0  0  0  0  0  0  0
   -4.7230    0.3839   -1.0166 C   0  0  0  0  0  0  0  0  0  0  0  0
   -3.4219    0.6758   -0.5721 C   0  0  0  0  0  0  0  0  0  0  0  0
   -2.8978    1.7945   -0.8350 O   0  0  0  0  0  0  0  0  0  0  0  0
   -2.6954   -0.2845    0.1565 C   0  0  0  0  0  0  0  0  0  0  0  0
   -1.3180    0.0247    0.6080 C   0  0  0  0  0  0  0  0  0  0  0  0
   -0.2238   -0.6768    0.0799 C   0  0  0  0  0  0  0  0  0  0  0  0
    1.0742   -0.3813    0.5056 C   0  0  0  0  0  0  0  0  0  0  0  0
    1.2956    0.6334    1.4542 C   0  0  0  0  0  0  0  0  0  0  0  0
    2.5814    0.9480    1.9182 O   0  0  0  0  0  0  0  0  0  0  0  0
    3.7637    0.8445    1.1704 C   0  0  0  0  0  0  0  0  0  0  0  0
    3.7854    1.0504   -0.2199 C   0  0  0  0  0  0  0  0  0  0  0  0
    4.9871    0.9545   -0.9271 C   0  0  0  0  0  0  0  0  0  0  0  0
    6.1847    0.6658   -0.2621 C   0  0  0  0  0  0  0  0  0  0  0  0
    7.3615    0.5793   -1.0234 O   0  0  0  0  0  0  0  0  0  0  0  0
    8.6592    0.2955   -0.5047 C   0  0  0  0  0  0  0  0  0  0  0  0
    8.6686   -0.9474    0.1027 F   0  0  0  0  0  0  0  0  0  0  0  0
    9.5665    0.2889   -1.5463 F   0  0  0  0  0  0  0  0  0  0  0  0
    9.0322    1.2684    0.4053 F   0  0  0  0  0  0  0  0  0  0  0  0
    6.1644    0.4790    1.1338 C   0  0  0  0  0  0  0  0  0  0  0  0
    4.9616    0.5755    1.8403 C   0  0  0  0  0  0  0  0  0  0  0  0
    0.2009    1.3215    1.9894 C   0  0  0  0  0  0  0  0  0  0  0  0
   -1.0978    1.0271    1.5643 C   0  0  0  0  0  0  0  0  0  0  0  0
  1  2  1  0
  2  3  4  0
  3  4  4  0
  4  5  4  0
  5  6  4  0
  6  7  4  0
  7  8  4  0
  8  9  4  0
  9 10  4  0
 10 11  2  0
 10 12  4  0
 12 13  1  0
 13 14  4  0
 14 15  4  0
 15 16  4  0
 16 17  1  0
 17 18  1  0
 18 19  4  0
 19 20  4  0
 20 21  4  0
 21 22  1  0
 22 23  1  0
 23 24  1  0
 23 25  1  0
 23 26  1  0
 21 27  4  0
 27 28  4  0
 16 29  4  0
 29 30  4  0
  9  4  4  0
 12  2  4  0
 28 18  4  0
 30 13  4  0
M  END
>  <SMILES>  (16) 
Cc2[nH]c1ccccc1c(=O)c2c4ccc(Oc3ccc(OC(F)(F)F)cc3)cc4

>  <NumConformers>  (16) 
16

>  <EnergyUnits>  (16) 
RDKit_forcefield

>  <Processing_Time>  (16) 
32.1s

>  <Original_Conformers>  (16) 
500

>  <Total_Conformers>  (16) 
16

>  <Energy>  (16) 
70.531276004813648

>  <Energy_Unit>  (16) 
RDKit_forcefield

>  <Rank>  (16) 
16

>  <Conformer_Index>  (16) 
15

$$$$
