RKA-70
     RDKit          3D

 29 32  0  0  0  0  0  0  0  0999 V2000
   -5.9585   -1.8789   -0.5278 O   0  0  0  0  0  0  0  0  0  0  0  0
   -5.0728   -0.9998   -0.3443 C   0  0  0  0  0  0  0  0  0  0  0  0
   -3.7927   -1.3915    0.0506 C   0  0  0  0  0  0  0  0  0  0  0  0
   -2.7959   -0.4258    0.2631 C   0  0  0  0  0  0  0  0  0  0  0  0
   -1.4351   -0.8369    0.6916 C   0  0  0  0  0  0  0  0  0  0  0  0
   -0.8159   -1.9673    0.1288 C   0  0  0  0  0  0  0  0  0  0  0  0
    0.4671   -2.3475    0.5320 C   0  0  0  0  0  0  0  0  0  0  0  0
    1.1499   -1.6109    1.5115 C   0  0  0  0  0  0  0  0  0  0  0  0
    2.5467   -1.9970    1.9158 C   0  0  0  0  0  0  0  0  0  0  0  0
    3.5519   -1.3098    1.0320 C   0  0  0  0  0  0  0  0  0  0  0  0
    4.0375   -0.0370    1.3681 C   0  0  0  0  0  0  0  0  0  0  0  0
    4.9431    0.6188    0.5286 C   0  0  0  0  0  0  0  0  0  0  0  0
    5.3701    0.0117   -0.6685 C   0  0  0  0  0  0  0  0  0  0  0  0
    6.2770    0.6234   -1.5490 O   0  0  0  0  0  0  0  0  0  0  0  0
    6.8732    1.9047   -1.3588 C   0  0  0  0  0  0  0  0  0  0  0  0
    5.8954    2.8817   -1.3012 F   0  0  0  0  0  0  0  0  0  0  0  0
    7.6199    1.9151   -0.1943 F   0  0  0  0  0  0  0  0  0  0  0  0
    7.7085    2.1732   -2.4257 F   0  0  0  0  0  0  0  0  0  0  0  0
    4.8738   -1.2534   -1.0049 C   0  0  0  0  0  0  0  0  0  0  0  0
    3.9684   -1.9091   -0.1662 C   0  0  0  0  0  0  0  0  0  0  0  0
    0.5401   -0.4762    2.0670 C   0  0  0  0  0  0  0  0  0  0  0  0
   -0.7425   -0.0944    1.6636 C   0  0  0  0  0  0  0  0  0  0  0  0
   -3.0897    0.8962    0.0795 N   0  0  0  0  0  0  0  0  0  0  0  0
   -4.3314    1.3113   -0.3072 C   0  0  0  0  0  0  0  0  0  0  0  0
   -4.5970    2.6784   -0.4899 C   0  0  0  0  0  0  0  0  0  0  0  0
   -5.8676    3.1027   -0.8862 C   0  0  0  0  0  0  0  0  0  0  0  0
   -6.8830    2.1694   -1.1044 C   0  0  0  0  0  0  0  0  0  0  0  0
   -6.6346    0.8056   -0.9282 C   0  0  0  0  0  0  0  0  0  0  0  0
   -5.3590    0.3634   -0.5293 C   0  0  0  0  0  0  0  0  0  0  0  0
  1  2  2  0
  2  3  4  0
  3  4  4  0
  4  5  1  0
  5  6  4  0
  6  7  4  0
  7  8  4  0
  8  9  1  0
  9 10  1  0
 10 11  4  0
 11 12  4  0
 12 13  4  0
 13 14  1  0
 14 15  1  0
 15 16  1  0
 15 17  1  0
 15 18  1  0
 13 19  4  0
 19 20  4  0
  8 21  4  0
 21 22  4  0
  4 23  4  0
 23 24  4  0
 24 25  4  0
 25 26  4  0
 26 27  4  0
 27 28  4  0
 28 29  4  0
 20 10  4  0
 22  5  4  0
 29  2  4  0
 29 24  4  0
M  END
>  <SMILES>  (1) 
O=c3cc(c2ccc(Cc1ccc(OC(F)(F)F)cc1)cc2)[nH]c4ccccc34

>  <NumConformers>  (1) 
8

>  <EnergyUnits>  (1) 
RDKit_forcefield

>  <Total_Conformers>  (1) 
8

>  <Energy>  (1) 
58.157985942253958

>  <Energy_Unit>  (1) 
RDKit_forcefield

>  <Rank>  (1) 
1

>  <Conformer_Index>  (1) 
0

$$$$
RKA-70
     RDKit          3D

 29 32  0  0  0  0  0  0  0  0999 V2000
   -5.9078   -0.0548    2.2277 O   0  0  0  0  0  0  0  0  0  0  0  0
   -5.0421    0.1048    1.3244 C   0  0  0  0  0  0  0  0  0  0  0  0
   -3.7660   -0.4333    1.4981 C   0  0  0  0  0  0  0  0  0  0  0  0
   -2.7915   -0.2684    0.5009 C   0  0  0  0  0  0  0  0  0  0  0  0
   -1.4353   -0.8465    0.6772 C   0  0  0  0  0  0  0  0  0  0  0  0
   -0.7829   -0.7806    1.9213 C   0  0  0  0  0  0  0  0  0  0  0  0
    0.4956   -1.3220    2.0810 C   0  0  0  0  0  0  0  0  0  0  0  0
    1.1405   -1.9472    1.0035 C   0  0  0  0  0  0  0  0  0  0  0  0
    2.5329   -2.4938    1.1653 C   0  0  0  0  0  0  0  0  0  0  0  0
    3.5486   -1.4289    0.8521 C   0  0  0  0  0  0  0  0  0  0  0  0
    4.0057   -0.5674    1.8607 C   0  0  0  0  0  0  0  0  0  0  0  0
    4.9210    0.4454    1.5614 C   0  0  0  0  0  0  0  0  0  0  0  0
    5.3871    0.6217    0.2531 C   0  0  0  0  0  0  0  0  0  0  0  0
    6.3057    1.6558    0.0106 O   0  0  0  0  0  0  0  0  0  0  0  0
    6.8750    1.9713   -1.2581 C   0  0  0  0  0  0  0  0  0  0  0  0
    5.8798    2.3167   -2.1548 F   0  0  0  0  0  0  0  0  0  0  0  0
    7.5915    0.8910   -1.7412 F   0  0  0  0  0  0  0  0  0  0  0  0
    7.7327    3.0440   -1.1101 F   0  0  0  0  0  0  0  0  0  0  0  0
    4.9193   -0.2355   -0.7620 C   0  0  0  0  0  0  0  0  0  0  0  0
    4.0039   -1.2490   -0.4629 C   0  0  0  0  0  0  0  0  0  0  0  0
    0.4976   -2.0048   -0.2421 C   0  0  0  0  0  0  0  0  0  0  0  0
   -0.7805   -1.4626   -0.4032 C   0  0  0  0  0  0  0  0  0  0  0  0
   -3.1029    0.4221   -0.6367 N   0  0  0  0  0  0  0  0  0  0  0  0
   -4.3411    0.9612   -0.8361 C   0  0  0  0  0  0  0  0  0  0  0  0
   -4.6251    1.6680   -2.0162 C   0  0  0  0  0  0  0  0  0  0  0  0
   -5.8921    2.2201   -2.2195 C   0  0  0  0  0  0  0  0  0  0  0  0
   -6.8857    2.0733   -1.2495 C   0  0  0  0  0  0  0  0  0  0  0  0
   -6.6189    1.3741   -0.0695 C   0  0  0  0  0  0  0  0  0  0  0  0
   -5.3465    0.8126    0.1493 C   0  0  0  0  0  0  0  0  0  0  0  0
  1  2  2  0
  2  3  4  0
  3  4  4  0
  4  5  1  0
  5  6  4  0
  6  7  4  0
  7  8  4  0
  8  9  1  0
  9 10  1  0
 10 11  4  0
 11 12  4  0
 12 13  4  0
 13 14  1  0
 14 15  1  0
 15 16  1  0
 15 17  1  0
 15 18  1  0
 13 19  4  0
 19 20  4  0
  8 21  4  0
 21 22  4  0
  4 23  4  0
 23 24  4  0
 24 25  4  0
 25 26  4  0
 26 27  4  0
 27 28  4  0
 28 29  4  0
 20 10  4  0
 22  5  4  0
 29  2  4  0
 29 24  4  0
M  END
>  <SMILES>  (2) 
O=c3cc(c2ccc(Cc1ccc(OC(F)(F)F)cc1)cc2)[nH]c4ccccc34

>  <NumConformers>  (2) 
8

>  <EnergyUnits>  (2) 
RDKit_forcefield

>  <Total_Conformers>  (2) 
8

>  <Energy>  (2) 
58.157985944668098

>  <Energy_Unit>  (2) 
RDKit_forcefield

>  <Rank>  (2) 
2

>  <Conformer_Index>  (2) 
1

$$$$
RKA-70
     RDKit          3D

 29 32  0  0  0  0  0  0  0  0999 V2000
   -4.1099    1.6255   -3.0911 O   0  0  0  0  0  0  0  0  0  0  0  0
   -3.9963    1.1324   -1.9357 C   0  0  0  0  0  0  0  0  0  0  0  0
   -2.7825    0.5593   -1.5535 C   0  0  0  0  0  0  0  0  0  0  0  0
   -2.6377    0.0093   -0.2697 C   0  0  0  0  0  0  0  0  0  0  0  0
   -1.3456   -0.5931    0.1452 C   0  0  0  0  0  0  0  0  0  0  0  0
   -0.8418   -0.3698    1.4382 C   0  0  0  0  0  0  0  0  0  0  0  0
    0.3744   -0.9343    1.8329 C   0  0  0  0  0  0  0  0  0  0  0  0
    1.1031   -1.7404    0.9457 C   0  0  0  0  0  0  0  0  0  0  0  0
    2.4314   -2.3145    1.3576 C   0  0  0  0  0  0  0  0  0  0  0  0
    3.5389   -1.3519    1.0248 C   0  0  0  0  0  0  0  0  0  0  0  0
    4.1559   -1.3901   -0.2349 C   0  0  0  0  0  0  0  0  0  0  0  0
    5.1594   -0.4721   -0.5590 C   0  0  0  0  0  0  0  0  0  0  0  0
    5.5548    0.5070    0.3733 C   0  0  0  0  0  0  0  0  0  0  0  0
    6.5559    1.4537    0.1022 O   0  0  0  0  0  0  0  0  0  0  0  0
    7.2887    1.5516   -1.1172 C   0  0  0  0  0  0  0  0  0  0  0  0
    7.9910    0.3820   -1.3467 F   0  0  0  0  0  0  0  0  0  0  0  0
    8.1857    2.5974   -1.0182 F   0  0  0  0  0  0  0  0  0  0  0  0
    6.4286    1.8003   -2.1718 F   0  0  0  0  0  0  0  0  0  0  0  0
    4.9280    0.5482    1.6244 C   0  0  0  0  0  0  0  0  0  0  0  0
    3.9248   -0.3692    1.9487 C   0  0  0  0  0  0  0  0  0  0  0  0
    0.6090   -1.9572   -0.3493 C   0  0  0  0  0  0  0  0  0  0  0  0
   -0.6064   -1.3923   -0.7453 C   0  0  0  0  0  0  0  0  0  0  0  0
   -3.6927    0.0403    0.5985 N   0  0  0  0  0  0  0  0  0  0  0  0
   -4.8927    0.5926    0.2546 C   0  0  0  0  0  0  0  0  0  0  0  0
   -5.9568    0.6037    1.1714 C   0  0  0  0  0  0  0  0  0  0  0  0
   -7.1849    1.1685    0.8188 C   0  0  0  0  0  0  0  0  0  0  0  0
   -7.3633    1.7257   -0.4489 C   0  0  0  0  0  0  0  0  0  0  0  0
   -6.3150    1.7216   -1.3729 C   0  0  0  0  0  0  0  0  0  0  0  0
   -5.0719    1.1558   -1.0317 C   0  0  0  0  0  0  0  0  0  0  0  0
  1  2  2  0
  2  3  4  0
  3  4  4  0
  4  5  1  0
  5  6  4  0
  6  7  4  0
  7  8  4  0
  8  9  1  0
  9 10  1  0
 10 11  4  0
 11 12  4  0
 12 13  4  0
 13 14  1  0
 14 15  1  0
 15 16  1  0
 15 17  1  0
 15 18  1  0
 13 19  4  0
 19 20  4  0
  8 21  4  0
 21 22  4  0
  4 23  4  0
 23 24  4  0
 24 25  4  0
 25 26  4  0
 26 27  4  0
 27 28  4  0
 28 29  4  0
 20 10  4  0
 22  5  4  0
 29  2  4  0
 29 24  4  0
M  END
>  <SMILES>  (3) 
O=c3cc(c2ccc(Cc1ccc(OC(F)(F)F)cc1)cc2)[nH]c4ccccc34

>  <NumConformers>  (3) 
8

>  <EnergyUnits>  (3) 
RDKit_forcefield

>  <Total_Conformers>  (3) 
8

>  <Energy>  (3) 
58.160154413297732

>  <Energy_Unit>  (3) 
RDKit_forcefield

>  <Rank>  (3) 
3

>  <Conformer_Index>  (3) 
2

$$$$
RKA-70
     RDKit          3D

 29 32  0  0  0  0  0  0  0  0999 V2000
   -4.0378    3.6392   -0.3167 O   0  0  0  0  0  0  0  0  0  0  0  0
   -3.9515    2.3854   -0.2094 C   0  0  0  0  0  0  0  0  0  0  0  0
   -2.7376    1.8144    0.1758 C   0  0  0  0  0  0  0  0  0  0  0  0
   -2.6230    0.4202    0.2964 C   0  0  0  0  0  0  0  0  0  0  0  0
   -1.3313   -0.1929    0.6966 C   0  0  0  0  0  0  0  0  0  0  0  0
   -0.8774   -1.3649    0.0672 C   0  0  0  0  0  0  0  0  0  0  0  0
    0.3382   -1.9451    0.4402 C   0  0  0  0  0  0  0  0  0  0  0  0
    1.1163   -1.3701    1.4560 C   0  0  0  0  0  0  0  0  0  0  0  0
    2.4437   -1.9724    1.8289 C   0  0  0  0  0  0  0  0  0  0  0  0
    3.5377   -1.3848    0.9794 C   0  0  0  0  0  0  0  0  0  0  0  0
    4.1980   -0.2148    1.3844 C   0  0  0  0  0  0  0  0  0  0  0  0
    5.1889    0.3532    0.5781 C   0  0  0  0  0  0  0  0  0  0  0  0
    5.5281   -0.2388   -0.6542 C   0  0  0  0  0  0  0  0  0  0  0  0
    6.5142    0.2878   -1.5041 O   0  0  0  0  0  0  0  0  0  0  0  0
    7.2854    1.4589   -1.2449 C   0  0  0  0  0  0  0  0  0  0  0  0
    8.1524    1.6671   -2.2999 F   0  0  0  0  0  0  0  0  0  0  0  0
    6.4557    2.5595   -1.1258 F   0  0  0  0  0  0  0  0  0  0  0  0
    8.0237    1.2969   -0.0863 F   0  0  0  0  0  0  0  0  0  0  0  0
    4.8583   -1.3996   -1.0591 C   0  0  0  0  0  0  0  0  0  0  0  0
    3.8676   -1.9676   -0.2534 C   0  0  0  0  0  0  0  0  0  0  0  0
    0.6721   -0.1945    2.0793 C   0  0  0  0  0  0  0  0  0  0  0  0
   -0.5427    0.3872    1.7064 C   0  0  0  0  0  0  0  0  0  0  0  0
   -3.7073   -0.3692    0.0342 N   0  0  0  0  0  0  0  0  0  0  0  0
   -4.9083    0.1585   -0.3435 C   0  0  0  0  0  0  0  0  0  0  0  0
   -6.0029   -0.6830   -0.6014 C   0  0  0  0  0  0  0  0  0  0  0  0
   -7.2319   -0.1424   -0.9873 C   0  0  0  0  0  0  0  0  0  0  0  0
   -7.3807    1.2397   -1.1186 C   0  0  0  0  0  0  0  0  0  0  0  0
   -6.3018    2.0906   -0.8645 C   0  0  0  0  0  0  0  0  0  0  0  0
   -5.0574    1.5601   -0.4746 C   0  0  0  0  0  0  0  0  0  0  0  0
  1  2  2  0
  2  3  4  0
  3  4  4  0
  4  5  1  0
  5  6  4  0
  6  7  4  0
  7  8  4  0
  8  9  1  0
  9 10  1  0
 10 11  4  0
 11 12  4  0
 12 13  4  0
 13 14  1  0
 14 15  1  0
 15 16  1  0
 15 17  1  0
 15 18  1  0
 13 19  4  0
 19 20  4  0
  8 21  4  0
 21 22  4  0
  4 23  4  0
 23 24  4  0
 24 25  4  0
 25 26  4  0
 26 27  4  0
 27 28  4  0
 28 29  4  0
 20 10  4  0
 22  5  4  0
 29  2  4  0
 29 24  4  0
M  END
>  <SMILES>  (4) 
O=c3cc(c2ccc(Cc1ccc(OC(F)(F)F)cc1)cc2)[nH]c4ccccc34

>  <NumConformers>  (4) 
8

>  <EnergyUnits>  (4) 
RDKit_forcefield

>  <Total_Conformers>  (4) 
8

>  <Energy>  (4) 
58.160154414441791

>  <Energy_Unit>  (4) 
RDKit_forcefield

>  <Rank>  (4) 
4

>  <Conformer_Index>  (4) 
3

$$$$
RKA-70
     RDKit          3D

 29 32  0  0  0  0  0  0  0  0999 V2000
   -4.2994    0.9740   -3.2438 O   0  0  0  0  0  0  0  0  0  0  0  0
   -4.1051    0.7357   -2.0204 C   0  0  0  0  0  0  0  0  0  0  0  0
   -2.8903    0.1790   -1.6171 C   0  0  0  0  0  0  0  0  0  0  0  0
   -2.6562   -0.0902   -0.2592 C   0  0  0  0  0  0  0  0  0  0  0  0
   -1.3598   -0.6684    0.1765 C   0  0  0  0  0  0  0  0  0  0  0  0
   -0.7335   -0.2031    1.3457 C   0  0  0  0  0  0  0  0  0  0  0  0
    0.4906   -0.7385    1.7559 C   0  0  0  0  0  0  0  0  0  0  0  0
    1.1055   -1.7550    1.0099 C   0  0  0  0  0  0  0  0  0  0  0  0
    2.4457   -2.2970    1.4269 C   0  0  0  0  0  0  0  0  0  0  0  0
    3.5497   -1.4688    0.8273 C   0  0  0  0  0  0  0  0  0  0  0  0
    4.0503   -1.7722   -0.4480 C   0  0  0  0  0  0  0  0  0  0  0  0
    5.0493   -0.9797   -1.0200 C   0  0  0  0  0  0  0  0  0  0  0  0
    5.5574    0.1312   -0.3361 C   0  0  0  0  0  0  0  0  0  0  0  0
    6.5606    0.8915   -0.9590 O   0  0  0  0  0  0  0  0  0  0  0  0
    7.1832    2.0473   -0.4018 C   0  0  0  0  0  0  0  0  0  0  0  0
    6.2408    3.0338   -0.1738 F   0  0  0  0  0  0  0  0  0  0  0  0
    8.1211    2.5261   -1.2958 F   0  0  0  0  0  0  0  0  0  0  0  0
    7.8219    1.7203    0.7812 F   0  0  0  0  0  0  0  0  0  0  0  0
    5.0462    0.4431    0.9388 C   0  0  0  0  0  0  0  0  0  0  0  0
    4.0477   -0.3499    1.5120 C   0  0  0  0  0  0  0  0  0  0  0  0
    0.4882   -2.2161   -0.1625 C   0  0  0  0  0  0  0  0  0  0  0  0
   -0.7361   -1.6817   -0.5734 C   0  0  0  0  0  0  0  0  0  0  0  0
   -3.6265    0.1948    0.6601 N   0  0  0  0  0  0  0  0  0  0  0  0
   -4.8251    0.7384    0.2978 C   0  0  0  0  0  0  0  0  0  0  0  0
   -5.8000    1.0172    1.2697 C   0  0  0  0  0  0  0  0  0  0  0  0
   -7.0257    1.5753    0.8989 C   0  0  0  0  0  0  0  0  0  0  0  0
   -7.2902    1.8602   -0.4422 C   0  0  0  0  0  0  0  0  0  0  0  0
   -6.3310    1.5885   -1.4215 C   0  0  0  0  0  0  0  0  0  0  0  0
   -5.0919    1.0249   -1.0627 C   0  0  0  0  0  0  0  0  0  0  0  0
  1  2  2  0
  2  3  4  0
  3  4  4  0
  4  5  1  0
  5  6  4  0
  6  7  4  0
  7  8  4  0
  8  9  1  0
  9 10  1  0
 10 11  4  0
 11 12  4  0
 12 13  4  0
 13 14  1  0
 14 15  1  0
 15 16  1  0
 15 17  1  0
 15 18  1  0
 13 19  4  0
 19 20  4  0
  8 21  4  0
 21 22  4  0
  4 23  4  0
 23 24  4  0
 24 25  4  0
 25 26  4  0
 26 27  4  0
 27 28  4  0
 28 29  4  0
 20 10  4  0
 22  5  4  0
 29  2  4  0
 29 24  4  0
M  END
>  <SMILES>  (5) 
O=c3cc(c2ccc(Cc1ccc(OC(F)(F)F)cc1)cc2)[nH]c4ccccc34

>  <NumConformers>  (5) 
8

>  <EnergyUnits>  (5) 
RDKit_forcefield

>  <Total_Conformers>  (5) 
8

>  <Energy>  (5) 
58.167608577752041

>  <Energy_Unit>  (5) 
RDKit_forcefield

>  <Rank>  (5) 
5

>  <Conformer_Index>  (5) 
4

$$$$
RKA-70
     RDKit          3D

 29 32  0  0  0  0  0  0  0  0999 V2000
   -4.2290    3.5862    0.3790 O   0  0  0  0  0  0  0  0  0  0  0  0
   -4.0639    2.3464    0.2153 C   0  0  0  0  0  0  0  0  0  0  0  0
   -2.8486    1.7648    0.5797 C   0  0  0  0  0  0  0  0  0  0  0  0
   -2.6470    0.3870    0.4014 C   0  0  0  0  0  0  0  0  0  0  0  0
   -1.3490   -0.2331    0.7682 C   0  0  0  0  0  0  0  0  0  0  0  0
   -0.6824    0.1392    1.9492 C   0  0  0  0  0  0  0  0  0  0  0  0
    0.5420   -0.4448    2.2862 C   0  0  0  0  0  0  0  0  0  0  0  0
    1.1171   -1.4168    1.4535 C   0  0  0  0  0  0  0  0  0  0  0  0
    2.4550   -2.0151    1.7944 C   0  0  0  0  0  0  0  0  0  0  0  0
    3.5585   -1.2230    1.1469 C   0  0  0  0  0  0  0  0  0  0  0  0
    4.0222   -1.5680   -0.1321 C   0  0  0  0  0  0  0  0  0  0  0  0
    5.0217   -0.8105   -0.7502 C   0  0  0  0  0  0  0  0  0  0  0  0
    5.5678    0.3127   -0.0980 C   0  0  0  0  0  0  0  0  0  0  0  0
    6.5737    1.1084   -0.6702 O   0  0  0  0  0  0  0  0  0  0  0  0
    7.1672    0.8924   -1.9486 C   0  0  0  0  0  0  0  0  0  0  0  0
    8.1207    1.8671   -2.1704 F   0  0  0  0  0  0  0  0  0  0  0  0
    6.2068    0.9739   -2.9403 F   0  0  0  0  0  0  0  0  0  0  0  0
    7.7797   -0.3475   -1.9866 F   0  0  0  0  0  0  0  0  0  0  0  0
    5.0934    0.6597    1.1730 C   0  0  0  0  0  0  0  0  0  0  0  0
    4.0941   -0.0971    1.7911 C   0  0  0  0  0  0  0  0  0  0  0  0
    0.4599   -1.7829    0.2693 C   0  0  0  0  0  0  0  0  0  0  0  0
   -0.7648   -1.2000   -0.0681 C   0  0  0  0  0  0  0  0  0  0  0  0
   -3.6496   -0.3768   -0.1263 N   0  0  0  0  0  0  0  0  0  0  0  0
   -4.8493    0.1615   -0.4923 C   0  0  0  0  0  0  0  0  0  0  0  0
   -5.8575   -0.6542   -1.0316 C   0  0  0  0  0  0  0  0  0  0  0  0
   -7.0839   -0.1028   -1.4094 C   0  0  0  0  0  0  0  0  0  0  0  0
   -7.3160    1.2645   -1.2529 C   0  0  0  0  0  0  0  0  0  0  0  0
   -6.3246    2.0893   -0.7146 C   0  0  0  0  0  0  0  0  0  0  0  0
   -5.0837    1.5477   -0.3296 C   0  0  0  0  0  0  0  0  0  0  0  0
  1  2  2  0
  2  3  4  0
  3  4  4  0
  4  5  1  0
  5  6  4  0
  6  7  4  0
  7  8  4  0
  8  9  1  0
  9 10  1  0
 10 11  4  0
 11 12  4  0
 12 13  4  0
 13 14  1  0
 14 15  1  0
 15 16  1  0
 15 17  1  0
 15 18  1  0
 13 19  4  0
 19 20  4  0
  8 21  4  0
 21 22  4  0
  4 23  4  0
 23 24  4  0
 24 25  4  0
 25 26  4  0
 26 27  4  0
 27 28  4  0
 28 29  4  0
 20 10  4  0
 22  5  4  0
 29  2  4  0
 29 24  4  0
M  END
>  <SMILES>  (6) 
O=c3cc(c2ccc(Cc1ccc(OC(F)(F)F)cc1)cc2)[nH]c4ccccc34

>  <NumConformers>  (6) 
8

>  <EnergyUnits>  (6) 
RDKit_forcefield

>  <Total_Conformers>  (6) 
8

>  <Energy>  (6) 
58.176664847920001

>  <Energy_Unit>  (6) 
RDKit_forcefield

>  <Rank>  (6) 
6

>  <Conformer_Index>  (6) 
5

$$$$
RKA-70
     RDKit          3D

 29 32  0  0  0  0  0  0  0  0999 V2000
   -5.3755    2.2845    2.0505 O   0  0  0  0  0  0  0  0  0  0  0  0
   -4.7125    1.5682    1.2507 C   0  0  0  0  0  0  0  0  0  0  0  0
   -3.4569    1.0941    1.6360 C   0  0  0  0  0  0  0  0  0  0  0  0
   -2.7067    0.2940    0.7587 C   0  0  0  0  0  0  0  0  0  0  0  0
   -1.3718   -0.2156    1.1630 C   0  0  0  0  0  0  0  0  0  0  0  0
   -0.4710    0.6055    1.8638 C   0  0  0  0  0  0  0  0  0  0  0  0
    0.7937    0.1293    2.2197 C   0  0  0  0  0  0  0  0  0  0  0  0
    1.1782   -1.1777    1.8882 C   0  0  0  0  0  0  0  0  0  0  0  0
    2.5634   -1.6661    2.2135 C   0  0  0  0  0  0  0  0  0  0  0  0
    3.5251   -1.2432    1.1369 C   0  0  0  0  0  0  0  0  0  0  0  0
    3.6433   -1.9966   -0.0409 C   0  0  0  0  0  0  0  0  0  0  0  0
    4.4978   -1.5770   -1.0635 C   0  0  0  0  0  0  0  0  0  0  0  0
    5.2438   -0.4001   -0.9306 C   0  0  0  0  0  0  0  0  0  0  0  0
    6.0842   -0.0257   -1.9911 O   0  0  0  0  0  0  0  0  0  0  0  0
    6.8927    1.1481   -2.0250 C   0  0  0  0  0  0  0  0  0  0  0  0
    6.0987    2.2771   -1.9296 F   0  0  0  0  0  0  0  0  0  0  0  0
    7.8084    1.1261   -0.9890 F   0  0  0  0  0  0  0  0  0  0  0  0
    7.5784    1.1867   -3.2235 F   0  0  0  0  0  0  0  0  0  0  0  0
    5.1201    0.3602    0.2489 C   0  0  0  0  0  0  0  0  0  0  0  0
    4.2628   -0.0574    1.2707 C   0  0  0  0  0  0  0  0  0  0  0  0
    0.2834   -1.9986    1.1865 C   0  0  0  0  0  0  0  0  0  0  0  0
   -0.9818   -1.5237    0.8315 C   0  0  0  0  0  0  0  0  0  0  0  0
   -3.2165   -0.0157   -0.4705 N   0  0  0  0  0  0  0  0  0  0  0  0
   -4.4410    0.4316   -0.8763 C   0  0  0  0  0  0  0  0  0  0  0  0
   -4.9311    0.0956   -2.1495 C   0  0  0  0  0  0  0  0  0  0  0  0
   -6.1850    0.5512   -2.5651 C   0  0  0  0  0  0  0  0  0  0  0  0
   -6.9574    1.3499   -1.7187 C   0  0  0  0  0  0  0  0  0  0  0  0
   -6.4817    1.6972   -0.4510 C   0  0  0  0  0  0  0  0  0  0  0  0
   -5.2218    1.2414   -0.0175 C   0  0  0  0  0  0  0  0  0  0  0  0
  1  2  2  0
  2  3  4  0
  3  4  4  0
  4  5  1  0
  5  6  4  0
  6  7  4  0
  7  8  4  0
  8  9  1  0
  9 10  1  0
 10 11  4  0
 11 12  4  0
 12 13  4  0
 13 14  1  0
 14 15  1  0
 15 16  1  0
 15 17  1  0
 15 18  1  0
 13 19  4  0
 19 20  4  0
  8 21  4  0
 21 22  4  0
  4 23  4  0
 23 24  4  0
 24 25  4  0
 25 26  4  0
 26 27  4  0
 27 28  4  0
 28 29  4  0
 20 10  4  0
 22  5  4  0
 29  2  4  0
 29 24  4  0
M  END
>  <SMILES>  (7) 
O=c3cc(c2ccc(Cc1ccc(OC(F)(F)F)cc1)cc2)[nH]c4ccccc34

>  <NumConformers>  (7) 
8

>  <EnergyUnits>  (7) 
RDKit_forcefield

>  <Total_Conformers>  (7) 
8

>  <Energy>  (7) 
58.241539968887828

>  <Energy_Unit>  (7) 
RDKit_forcefield

>  <Rank>  (7) 
7

>  <Conformer_Index>  (7) 
6

$$$$
RKA-70
     RDKit          3D

 29 32  0  0  0  0  0  0  0  0999 V2000
   -5.8409   -1.9351    0.2564 O   0  0  0  0  0  0  0  0  0  0  0  0
   -4.9985   -1.0009    0.1525 C   0  0  0  0  0  0  0  0  0  0  0  0
   -3.7062   -1.1883    0.6456 C   0  0  0  0  0  0  0  0  0  0  0  0
   -2.7560   -0.1590    0.5387 C   0  0  0  0  0  0  0  0  0  0  0  0
   -1.3823   -0.3485    1.0711 C   0  0  0  0  0  0  0  0  0  0  0  0
   -0.7121   -1.5755    0.9137 C   0  0  0  0  0  0  0  0  0  0  0  0
    0.5839   -1.7446    1.4095 C   0  0  0  0  0  0  0  0  0  0  0  0
    1.2303   -0.6942    2.0769 C   0  0  0  0  0  0  0  0  0  0  0  0
    2.6463   -0.8588    2.5596 C   0  0  0  0  0  0  0  0  0  0  0  0
    3.6114   -0.5608    1.4438 C   0  0  0  0  0  0  0  0  0  0  0  0
    3.9650    0.7651    1.1517 C   0  0  0  0  0  0  0  0  0  0  0  0
    4.8147    1.0493    0.0793 C   0  0  0  0  0  0  0  0  0  0  0  0
    5.3189    0.0206   -0.7227 C   0  0  0  0  0  0  0  0  0  0  0  0
    6.1508    0.3682   -1.7988 O   0  0  0  0  0  0  0  0  0  0  0  0
    6.6989   -0.5466   -2.7444 C   0  0  0  0  0  0  0  0  0  0  0  0
    5.6852   -1.2353   -3.3881 F   0  0  0  0  0  0  0  0  0  0  0  0
    7.5448   -1.4413   -2.1116 F   0  0  0  0  0  0  0  0  0  0  0  0
    7.4224    0.1628   -3.6821 F   0  0  0  0  0  0  0  0  0  0  0  0
    4.9664   -1.3108   -0.4292 C   0  0  0  0  0  0  0  0  0  0  0  0
    4.1130   -1.5963    0.6422 C   0  0  0  0  0  0  0  0  0  0  0  0
    0.5683    0.5336    2.2291 C   0  0  0  0  0  0  0  0  0  0  0  0
   -0.7276    0.7037    1.7348 C   0  0  0  0  0  0  0  0  0  0  0  0
   -3.1057    1.0200   -0.0576 N   0  0  0  0  0  0  0  0  0  0  0  0
   -4.3624    1.2358   -0.5445 C   0  0  0  0  0  0  0  0  0  0  0  0
   -4.6870    2.4609   -1.1476 C   0  0  0  0  0  0  0  0  0  0  0  0
   -5.9736    2.6823   -1.6445 C   0  0  0  0  0  0  0  0  0  0  0  0
   -6.9454    1.6838   -1.5467 C   0  0  0  0  0  0  0  0  0  0  0  0
   -6.6370    0.4569   -0.9537 C   0  0  0  0  0  0  0  0  0  0  0  0
   -5.3453    0.2212   -0.4473 C   0  0  0  0  0  0  0  0  0  0  0  0
  1  2  2  0
  2  3  4  0
  3  4  4  0
  4  5  1  0
  5  6  4  0
  6  7  4  0
  7  8  4  0
  8  9  1  0
  9 10  1  0
 10 11  4  0
 11 12  4  0
 12 13  4  0
 13 14  1  0
 14 15  1  0
 15 16  1  0
 15 17  1  0
 15 18  1  0
 13 19  4  0
 19 20  4  0
  8 21  4  0
 21 22  4  0
  4 23  4  0
 23 24  4  0
 24 25  4  0
 25 26  4  0
 26 27  4  0
 27 28  4  0
 28 29  4  0
 20 10  4  0
 22  5  4  0
 29  2  4  0
 29 24  4  0
M  END
>  <SMILES>  (8) 
O=c3cc(c2ccc(Cc1ccc(OC(F)(F)F)cc1)cc2)[nH]c4ccccc34

>  <NumConformers>  (8) 
8

>  <EnergyUnits>  (8) 
RDKit_forcefield

>  <Total_Conformers>  (8) 
8

>  <Energy>  (8) 
58.274548461141492

>  <Energy_Unit>  (8) 
RDKit_forcefield

>  <Rank>  (8) 
8

>  <Conformer_Index>  (8) 
7

$$$$
