RKA-307
     RDKit          3D

 24 27  0  0  0  0  0  0  0  0999 V2000
    2.1846    0.1532   -2.7803 C   0  0  0  0  0  0  0  0  0  0  0  0
    2.9215    0.0223   -1.4661 C   0  0  0  0  0  0  0  0  0  0  0  0
    2.2248   -0.1250   -0.2410 C   0  0  0  0  0  0  0  0  0  0  0  0
    0.7448   -0.1142   -0.1801 C   0  0  0  0  0  0  0  0  0  0  0  0
    0.0190    1.0073   -0.6106 C   0  0  0  0  0  0  0  0  0  0  0  0
   -1.3763    1.0164   -0.5335 C   0  0  0  0  0  0  0  0  0  0  0  0
   -2.0669   -0.0907   -0.0159 C   0  0  0  0  0  0  0  0  0  0  0  0
   -3.5048   -0.0732    0.0636 N   0  0  0  0  0  0  0  0  0  0  0  0
   -4.3014    0.1558   -1.1491 C   0  0  0  0  0  0  0  0  0  0  0  0
   -5.5226    1.0195   -0.8235 C   0  0  0  0  0  0  0  0  0  0  0  0
   -6.3133    0.4231    0.3461 C   0  0  0  0  0  0  0  0  0  0  0  0
   -5.4176    0.2542    1.5783 C   0  0  0  0  0  0  0  0  0  0  0  0
   -4.1895   -0.6012    1.2509 C   0  0  0  0  0  0  0  0  0  0  0  0
   -1.3373   -1.2046    0.4328 C   0  0  0  0  0  0  0  0  0  0  0  0
    0.0581   -1.2139    0.3547 C   0  0  0  0  0  0  0  0  0  0  0  0
    2.9213   -0.2875    0.9213 N   0  0  0  0  0  0  0  0  0  0  0  0
    4.2830   -0.2730    0.9590 C   0  0  0  0  0  0  0  0  0  0  0  0
    4.9587   -0.4337    2.1801 C   0  0  0  0  0  0  0  0  0  0  0  0
    6.3544   -0.4079    2.2223 C   0  0  0  0  0  0  0  0  0  0  0  0
    7.0875   -0.2207    1.0494 C   0  0  0  0  0  0  0  0  0  0  0  0
    6.4293   -0.0595   -0.1725 C   0  0  0  0  0  0  0  0  0  0  0  0
    5.0217   -0.0851   -0.2305 C   0  0  0  0  0  0  0  0  0  0  0  0
    4.3298    0.0684   -1.4447 C   0  0  0  0  0  0  0  0  0  0  0  0
    4.9710    0.2455   -2.5181 O   0  0  0  0  0  0  0  0  0  0  0  0
  1  2  1  0
  2  3  4  0
  3  4  1  0
  4  5  4  0
  5  6  4  0
  6  7  4  0
  7  8  1  0
  8  9  1  0
  9 10  1  0
 10 11  1  0
 11 12  1  0
 12 13  1  0
  7 14  4  0
 14 15  4  0
  3 16  4  0
 16 17  4  0
 17 18  4  0
 18 19  4  0
 19 20  4  0
 20 21  4  0
 21 22  4  0
 22 23  4  0
 23 24  2  0
 13  8  1  0
 15  4  4  0
 22 17  4  0
 23  2  4  0
M  END
>  <SMILES>  (1) 
Cc4c(c2ccc(N1CCCCC1)cc2)[nH]c3ccccc3c4=O

>  <NumConformers>  (1) 
8

>  <EnergyUnits>  (1) 
RDKit_forcefield

>  <Total_Conformers>  (1) 
8

>  <Energy>  (1) 
61.856417370540782

>  <Energy_Unit>  (1) 
RDKit_forcefield

>  <Rank>  (1) 
1

>  <Conformer_Index>  (1) 
0

$$$$
RKA-307
     RDKit          3D

 24 27  0  0  0  0  0  0  0  0999 V2000
    2.1723   -0.1383   -2.7907 C   0  0  0  0  0  0  0  0  0  0  0  0
    2.9137   -0.1633   -1.4727 C   0  0  0  0  0  0  0  0  0  0  0  0
    2.2282   -0.0453   -0.2382 C   0  0  0  0  0  0  0  0  0  0  0  0
    0.7523    0.0638   -0.1738 C   0  0  0  0  0  0  0  0  0  0  0  0
   -0.0637   -0.9595   -0.6806 C   0  0  0  0  0  0  0  0  0  0  0  0
   -1.4551   -0.8569   -0.6001 C   0  0  0  0  0  0  0  0  0  0  0  0
   -2.0520    0.2647   -0.0032 C   0  0  0  0  0  0  0  0  0  0  0  0
   -3.4864    0.3623    0.0791 N   0  0  0  0  0  0  0  0  0  0  0  0
   -4.2958    0.2876   -1.1444 C   0  0  0  0  0  0  0  0  0  0  0  0
   -5.5862   -0.4916   -0.8773 C   0  0  0  0  0  0  0  0  0  0  0  0
   -6.3276    0.0846    0.3341 C   0  0  0  0  0  0  0  0  0  0  0  0
   -5.4245    0.0898    1.5724 C   0  0  0  0  0  0  0  0  0  0  0  0
   -4.1280    0.8603    1.3030 C   0  0  0  0  0  0  0  0  0  0  0  0
   -1.2328    1.2788    0.5211 C   0  0  0  0  0  0  0  0  0  0  0  0
    0.1587    1.1765    0.4397 C   0  0  0  0  0  0  0  0  0  0  0  0
    2.9324   -0.0247    0.9306 N   0  0  0  0  0  0  0  0  0  0  0  0
    4.2879   -0.1560    0.9631 C   0  0  0  0  0  0  0  0  0  0  0  0
    4.9711   -0.1397    2.1906 C   0  0  0  0  0  0  0  0  0  0  0  0
    6.3596   -0.2854    2.2266 C   0  0  0  0  0  0  0  0  0  0  0  0
    7.0779   -0.4497    1.0412 C   0  0  0  0  0  0  0  0  0  0  0  0
    6.4121   -0.4680   -0.1871 C   0  0  0  0  0  0  0  0  0  0  0  0
    5.0118   -0.3204   -0.2389 C   0  0  0  0  0  0  0  0  0  0  0  0
    4.3131   -0.3288   -1.4588 C   0  0  0  0  0  0  0  0  0  0  0  0
    4.9404   -0.4824   -2.5440 O   0  0  0  0  0  0  0  0  0  0  0  0
  1  2  1  0
  2  3  4  0
  3  4  1  0
  4  5  4  0
  5  6  4  0
  6  7  4  0
  7  8  1  0
  8  9  1  0
  9 10  1  0
 10 11  1  0
 11 12  1  0
 12 13  1  0
  7 14  4  0
 14 15  4  0
  3 16  4  0
 16 17  4  0
 17 18  4  0
 18 19  4  0
 19 20  4  0
 20 21  4  0
 21 22  4  0
 22 23  4  0
 23 24  2  0
 13  8  1  0
 15  4  4  0
 22 17  4  0
 23  2  4  0
M  END
>  <SMILES>  (2) 
Cc4c(c2ccc(N1CCCCC1)cc2)[nH]c3ccccc3c4=O

>  <NumConformers>  (2) 
8

>  <EnergyUnits>  (2) 
RDKit_forcefield

>  <Total_Conformers>  (2) 
8

>  <Energy>  (2) 
61.856417371073675

>  <Energy_Unit>  (2) 
RDKit_forcefield

>  <Rank>  (2) 
2

>  <Conformer_Index>  (2) 
1

$$$$
RKA-307
     RDKit          3D

 24 27  0  0  0  0  0  0  0  0999 V2000
    2.1520   -0.1091   -2.7771 C   0  0  0  0  0  0  0  0  0  0  0  0
    2.9050   -0.1373   -1.4659 C   0  0  0  0  0  0  0  0  0  0  0  0
    2.2249   -0.0962   -0.2234 C   0  0  0  0  0  0  0  0  0  0  0  0
    0.7503    0.0204   -0.1458 C   0  0  0  0  0  0  0  0  0  0  0  0
    0.0903    1.1310   -0.6942 C   0  0  0  0  0  0  0  0  0  0  0  0
   -1.2997    1.2421   -0.6015 C   0  0  0  0  0  0  0  0  0  0  0  0
   -2.0498    0.2506    0.0530 C   0  0  0  0  0  0  0  0  0  0  0  0
   -3.4828    0.3572    0.1489 N   0  0  0  0  0  0  0  0  0  0  0  0
   -4.2713    0.8164   -1.0021 C   0  0  0  0  0  0  0  0  0  0  0  0
   -5.5943    0.0477   -1.0782 C   0  0  0  0  0  0  0  0  0  0  0  0
   -6.3344    0.0947    0.2631 C   0  0  0  0  0  0  0  0  0  0  0  0
   -5.4488   -0.4434    1.3923 C   0  0  0  0  0  0  0  0  0  0  0  0
   -4.1320    0.3339    1.4663 C   0  0  0  0  0  0  0  0  0  0  0  0
   -1.3857   -0.8522    0.6128 C   0  0  0  0  0  0  0  0  0  0  0  0
    0.0044   -0.9635    0.5193 C   0  0  0  0  0  0  0  0  0  0  0  0
    2.9325   -0.1707    0.9411 N   0  0  0  0  0  0  0  0  0  0  0  0
    4.2927   -0.2432    0.9600 C   0  0  0  0  0  0  0  0  0  0  0  0
    4.9809   -0.3076    2.1831 C   0  0  0  0  0  0  0  0  0  0  0  0
    6.3759   -0.3707    2.2046 C   0  0  0  0  0  0  0  0  0  0  0  0
    7.0959   -0.3686    1.0089 C   0  0  0  0  0  0  0  0  0  0  0  0
    6.4252   -0.3048   -0.2152 C   0  0  0  0  0  0  0  0  0  0  0  0
    5.0181   -0.2427   -0.2523 C   0  0  0  0  0  0  0  0  0  0  0  0
    4.3135   -0.1834   -1.4674 C   0  0  0  0  0  0  0  0  0  0  0  0
    4.9432   -0.1738   -2.5620 O   0  0  0  0  0  0  0  0  0  0  0  0
  1  2  1  0
  2  3  4  0
  3  4  1  0
  4  5  4  0
  5  6  4  0
  6  7  4  0
  7  8  1  0
  8  9  1  0
  9 10  1  0
 10 11  1  0
 11 12  1  0
 12 13  1  0
  7 14  4  0
 14 15  4  0
  3 16  4  0
 16 17  4  0
 17 18  4  0
 18 19  4  0
 19 20  4  0
 20 21  4  0
 21 22  4  0
 22 23  4  0
 23 24  2  0
 13  8  1  0
 15  4  4  0
 22 17  4  0
 23  2  4  0
M  END
>  <SMILES>  (3) 
Cc4c(c2ccc(N1CCCCC1)cc2)[nH]c3ccccc3c4=O

>  <NumConformers>  (3) 
8

>  <EnergyUnits>  (3) 
RDKit_forcefield

>  <Total_Conformers>  (3) 
8

>  <Energy>  (3) 
61.861894609959045

>  <Energy_Unit>  (3) 
RDKit_forcefield

>  <Rank>  (3) 
3

>  <Conformer_Index>  (3) 
2

$$$$
RKA-307
     RDKit          3D

 24 27  0  0  0  0  0  0  0  0999 V2000
    2.1413   -0.3623   -2.7639 C   0  0  0  0  0  0  0  0  0  0  0  0
    2.8998   -0.2611   -1.4594 C   0  0  0  0  0  0  0  0  0  0  0  0
    2.2241   -0.1151   -0.2224 C   0  0  0  0  0  0  0  0  0  0  0  0
    0.7452   -0.0985   -0.1395 C   0  0  0  0  0  0  0  0  0  0  0  0
   -0.0082   -1.2008   -0.5722 C   0  0  0  0  0  0  0  0  0  0  0  0
   -1.4023   -1.1842   -0.4746 C   0  0  0  0  0  0  0  0  0  0  0  0
   -2.0634   -0.0704    0.0698 C   0  0  0  0  0  0  0  0  0  0  0  0
   -3.4998   -0.0455    0.1699 N   0  0  0  0  0  0  0  0  0  0  0  0
   -4.1390    0.1695    1.4749 C   0  0  0  0  0  0  0  0  0  0  0  0
   -5.3860    1.0428    1.3145 C   0  0  0  0  0  0  0  0  0  0  0  0
   -6.3187    0.4664    0.2436 C   0  0  0  0  0  0  0  0  0  0  0  0
   -5.5831    0.3109   -1.0920 C   0  0  0  0  0  0  0  0  0  0  0  0
   -4.3292   -0.5542   -0.9304 C   0  0  0  0  0  0  0  0  0  0  0  0
   -1.3064    1.0249    0.5146 C   0  0  0  0  0  0  0  0  0  0  0  0
    0.0877    1.0086    0.4161 C   0  0  0  0  0  0  0  0  0  0  0  0
    2.9406    0.0206    0.9311 N   0  0  0  0  0  0  0  0  0  0  0  0
    4.3022   -0.0201    0.9483 C   0  0  0  0  0  0  0  0  0  0  0  0
    4.9987    0.1134    2.1610 C   0  0  0  0  0  0  0  0  0  0  0  0
    6.3941    0.0607    2.1820 C   0  0  0  0  0  0  0  0  0  0  0  0
    7.1062   -0.1265    0.9963 C   0  0  0  0  0  0  0  0  0  0  0  0
    6.4271   -0.2608   -0.2175 C   0  0  0  0  0  0  0  0  0  0  0  0
    5.0196   -0.2079   -0.2541 C   0  0  0  0  0  0  0  0  0  0  0  0
    4.3071   -0.3340   -1.4595 C   0  0  0  0  0  0  0  0  0  0  0  0
    4.9290   -0.5105   -2.5444 O   0  0  0  0  0  0  0  0  0  0  0  0
  1  2  1  0
  2  3  4  0
  3  4  1  0
  4  5  4  0
  5  6  4  0
  6  7  4  0
  7  8  1  0
  8  9  1  0
  9 10  1  0
 10 11  1  0
 11 12  1  0
 12 13  1  0
  7 14  4  0
 14 15  4  0
  3 16  4  0
 16 17  4  0
 17 18  4  0
 18 19  4  0
 19 20  4  0
 20 21  4  0
 21 22  4  0
 22 23  4  0
 23 24  2  0
 13  8  1  0
 15  4  4  0
 22 17  4  0
 23  2  4  0
M  END
>  <SMILES>  (4) 
Cc4c(c2ccc(N1CCCCC1)cc2)[nH]c3ccccc3c4=O

>  <NumConformers>  (4) 
8

>  <EnergyUnits>  (4) 
RDKit_forcefield

>  <Total_Conformers>  (4) 
8

>  <Energy>  (4) 
61.861894611109157

>  <Energy_Unit>  (4) 
RDKit_forcefield

>  <Rank>  (4) 
4

>  <Conformer_Index>  (4) 
3

$$$$
RKA-307
     RDKit          3D

 24 27  0  0  0  0  0  0  0  0999 V2000
    2.2649    0.4846   -2.7535 C   0  0  0  0  0  0  0  0  0  0  0  0
    2.9613    0.1807   -1.4459 C   0  0  0  0  0  0  0  0  0  0  0  0
    2.2278   -0.0571   -0.2571 C   0  0  0  0  0  0  0  0  0  0  0  0
    0.7490    0.0226   -0.2250 C   0  0  0  0  0  0  0  0  0  0  0  0
    0.0897    1.2189   -0.5475 C   0  0  0  0  0  0  0  0  0  0  0  0
   -1.3051    1.2913   -0.4968 C   0  0  0  0  0  0  0  0  0  0  0  0
   -2.0615    0.1707   -0.1146 C   0  0  0  0  0  0  0  0  0  0  0  0
   -3.4989    0.2388   -0.0577 N   0  0  0  0  0  0  0  0  0  0  0  0
   -4.3072   -0.7102   -0.8348 C   0  0  0  0  0  0  0  0  0  0  0  0
   -5.5460   -1.1257   -0.0371 C   0  0  0  0  0  0  0  0  0  0  0  0
   -6.3164    0.1061    0.4504 C   0  0  0  0  0  0  0  0  0  0  0  0
   -5.4103    1.0202    1.2826 C   0  0  0  0  0  0  0  0  0  0  0  0
   -4.1650    1.4282    0.4892 C   0  0  0  0  0  0  0  0  0  0  0  0
   -1.3984   -1.0190    0.2254 C   0  0  0  0  0  0  0  0  0  0  0  0
   -0.0035   -1.0911    0.1753 C   0  0  0  0  0  0  0  0  0  0  0  0
    2.8861   -0.3744    0.8954 N   0  0  0  0  0  0  0  0  0  0  0  0
    4.2455   -0.4333    0.9615 C   0  0  0  0  0  0  0  0  0  0  0  0
    4.8817   -0.7538    2.1724 C   0  0  0  0  0  0  0  0  0  0  0  0
    6.2755   -0.8037    2.2448 C   0  0  0  0  0  0  0  0  0  0  0  0
    7.0461   -0.5336    1.1127 C   0  0  0  0  0  0  0  0  0  0  0  0
    6.4274   -0.2133   -0.0984 C   0  0  0  0  0  0  0  0  0  0  0  0
    5.0221   -0.1610   -0.1868 C   0  0  0  0  0  0  0  0  0  0  0  0
    4.3692    0.1526   -1.3917 C   0  0  0  0  0  0  0  0  0  0  0  0
    5.0450    0.4070   -2.4277 O   0  0  0  0  0  0  0  0  0  0  0  0
  1  2  1  0
  2  3  4  0
  3  4  1  0
  4  5  4  0
  5  6  4  0
  6  7  4  0
  7  8  1  0
  8  9  1  0
  9 10  1  0
 10 11  1  0
 11 12  1  0
 12 13  1  0
  7 14  4  0
 14 15  4  0
  3 16  4  0
 16 17  4  0
 17 18  4  0
 18 19  4  0
 19 20  4  0
 20 21  4  0
 21 22  4  0
 22 23  4  0
 23 24  2  0
 13  8  1  0
 15  4  4  0
 22 17  4  0
 23  2  4  0
M  END
>  <SMILES>  (5) 
Cc4c(c2ccc(N1CCCCC1)cc2)[nH]c3ccccc3c4=O

>  <NumConformers>  (5) 
8

>  <EnergyUnits>  (5) 
RDKit_forcefield

>  <Total_Conformers>  (5) 
8

>  <Energy>  (5) 
61.870035962007123

>  <Energy_Unit>  (5) 
RDKit_forcefield

>  <Rank>  (5) 
5

>  <Conformer_Index>  (5) 
4

$$$$
RKA-307
     RDKit          3D

 24 27  0  0  0  0  0  0  0  0999 V2000
    2.2727    0.6654   -2.7089 C   0  0  0  0  0  0  0  0  0  0  0  0
    2.9652    0.2700   -1.4239 C   0  0  0  0  0  0  0  0  0  0  0  0
    2.2297   -0.0120   -0.2460 C   0  0  0  0  0  0  0  0  0  0  0  0
    0.7490    0.0234   -0.2248 C   0  0  0  0  0  0  0  0  0  0  0  0
    0.0010   -0.8284   -1.0522 C   0  0  0  0  0  0  0  0  0  0  0  0
   -1.3958   -0.8022   -1.0129 C   0  0  0  0  0  0  0  0  0  0  0  0
   -2.0658    0.0707   -0.1393 C   0  0  0  0  0  0  0  0  0  0  0  0
   -3.5049    0.1014   -0.0916 N   0  0  0  0  0  0  0  0  0  0  0  0
   -4.2173    1.3649   -0.3232 C   0  0  0  0  0  0  0  0  0  0  0  0
   -5.4338    1.4624    0.6009 C   0  0  0  0  0  0  0  0  0  0  0  0
   -6.3118    0.2124    0.4766 C   0  0  0  0  0  0  0  0  0  0  0  0
   -5.5002   -1.0538    0.7713 C   0  0  0  0  0  0  0  0  0  0  0  0
   -4.2765   -1.1472   -0.1458 C   0  0  0  0  0  0  0  0  0  0  0  0
   -1.3149    0.9083    0.7005 C   0  0  0  0  0  0  0  0  0  0  0  0
    0.0819    0.8814    0.6616 C   0  0  0  0  0  0  0  0  0  0  0  0
    2.8885   -0.3205    0.9087 N   0  0  0  0  0  0  0  0  0  0  0  0
    4.2465   -0.4101    0.9673 C   0  0  0  0  0  0  0  0  0  0  0  0
    4.8823   -0.7410    2.1755 C   0  0  0  0  0  0  0  0  0  0  0  0
    6.2738   -0.8443    2.2348 C   0  0  0  0  0  0  0  0  0  0  0  0
    7.0423   -0.6202    1.0914 C   0  0  0  0  0  0  0  0  0  0  0  0
    6.4240   -0.2903   -0.1174 C   0  0  0  0  0  0  0  0  0  0  0  0
    5.0213   -0.1808   -0.1917 C   0  0  0  0  0  0  0  0  0  0  0  0
    4.3693    0.1549   -1.3911 C   0  0  0  0  0  0  0  0  0  0  0  0
    5.0428    0.3560   -2.4403 O   0  0  0  0  0  0  0  0  0  0  0  0
  1  2  1  0
  2  3  4  0
  3  4  1  0
  4  5  4  0
  5  6  4  0
  6  7  4  0
  7  8  1  0
  8  9  1  0
  9 10  1  0
 10 11  1  0
 11 12  1  0
 12 13  1  0
  7 14  4  0
 14 15  4  0
  3 16  4  0
 16 17  4  0
 17 18  4  0
 18 19  4  0
 19 20  4  0
 20 21  4  0
 21 22  4  0
 22 23  4  0
 23 24  2  0
 13  8  1  0
 15  4  4  0
 22 17  4  0
 23  2  4  0
M  END
>  <SMILES>  (6) 
Cc4c(c2ccc(N1CCCCC1)cc2)[nH]c3ccccc3c4=O

>  <NumConformers>  (6) 
8

>  <EnergyUnits>  (6) 
RDKit_forcefield

>  <Total_Conformers>  (6) 
8

>  <Energy>  (6) 
61.870035967270795

>  <Energy_Unit>  (6) 
RDKit_forcefield

>  <Rank>  (6) 
6

>  <Conformer_Index>  (6) 
5

$$$$
RKA-307
     RDKit          3D

 24 27  0  0  0  0  0  0  0  0999 V2000
    2.1142    0.6484   -2.6549 C   0  0  0  0  0  0  0  0  0  0  0  0
    2.8866    0.2565   -1.4151 C   0  0  0  0  0  0  0  0  0  0  0  0
    2.2281   -0.0094   -0.1889 C   0  0  0  0  0  0  0  0  0  0  0  0
    0.7525    0.0400   -0.0702 C   0  0  0  0  0  0  0  0  0  0  0  0
   -0.0562   -0.8111   -0.8393 C   0  0  0  0  0  0  0  0  0  0  0  0
   -1.4470   -0.7710   -0.7080 C   0  0  0  0  0  0  0  0  0  0  0  0
   -2.0499    0.1115    0.2021 C   0  0  0  0  0  0  0  0  0  0  0  0
   -3.4838    0.1510    0.3296 N   0  0  0  0  0  0  0  0  0  0  0  0
   -4.2229   -1.0735    0.6641 C   0  0  0  0  0  0  0  0  0  0  0  0
   -5.5455   -1.1188   -0.1055 C   0  0  0  0  0  0  0  0  0  0  0  0
   -6.3408    0.1743    0.1050 C   0  0  0  0  0  0  0  0  0  0  0  0
   -5.5107    1.3962   -0.3036 C   0  0  0  0  0  0  0  0  0  0  0  0
   -4.1822    1.4367    0.4583 C   0  0  0  0  0  0  0  0  0  0  0  0
   -1.2378    0.9534    0.9804 C   0  0  0  0  0  0  0  0  0  0  0  0
    0.1531    0.9126    0.8496 C   0  0  0  0  0  0  0  0  0  0  0  0
    2.9590   -0.3150    0.9224 N   0  0  0  0  0  0  0  0  0  0  0  0
    4.3172   -0.4168    0.8918 C   0  0  0  0  0  0  0  0  0  0  0  0
    5.0285   -0.7442    2.0583 C   0  0  0  0  0  0  0  0  0  0  0  0
    6.4199   -0.8600    2.0263 C   0  0  0  0  0  0  0  0  0  0  0  0
    7.1131   -0.6520    0.8328 C   0  0  0  0  0  0  0  0  0  0  0  0
    6.4192   -0.3259   -0.3352 C   0  0  0  0  0  0  0  0  0  0  0  0
    5.0156   -0.2039   -0.3176 C   0  0  0  0  0  0  0  0  0  0  0  0
    4.2887    0.1285   -1.4742 C   0  0  0  0  0  0  0  0  0  0  0  0
    4.8932    0.3151   -2.5672 O   0  0  0  0  0  0  0  0  0  0  0  0
  1  2  1  0
  2  3  4  0
  3  4  1  0
  4  5  4  0
  5  6  4  0
  6  7  4  0
  7  8  1  0
  8  9  1  0
  9 10  1  0
 10 11  1  0
 11 12  1  0
 12 13  1  0
  7 14  4  0
 14 15  4  0
  3 16  4  0
 16 17  4  0
 17 18  4  0
 18 19  4  0
 19 20  4  0
 20 21  4  0
 21 22  4  0
 22 23  4  0
 23 24  2  0
 13  8  1  0
 15  4  4  0
 22 17  4  0
 23  2  4  0
M  END
>  <SMILES>  (7) 
Cc4c(c2ccc(N1CCCCC1)cc2)[nH]c3ccccc3c4=O

>  <NumConformers>  (7) 
8

>  <EnergyUnits>  (7) 
RDKit_forcefield

>  <Total_Conformers>  (7) 
8

>  <Energy>  (7) 
61.874371560001379

>  <Energy_Unit>  (7) 
RDKit_forcefield

>  <Rank>  (7) 
7

>  <Conformer_Index>  (7) 
6

$$$$
RKA-307
     RDKit          3D

 24 27  0  0  0  0  0  0  0  0999 V2000
    2.1053    0.4550   -2.7017 C   0  0  0  0  0  0  0  0  0  0  0  0
    2.8826    0.1688   -1.4364 C   0  0  0  0  0  0  0  0  0  0  0  0
    2.2240   -0.0988   -0.2105 C   0  0  0  0  0  0  0  0  0  0  0  0
    0.7475   -0.0686   -0.0964 C   0  0  0  0  0  0  0  0  0  0  0  0
    0.0320    1.1063   -0.3747 C   0  0  0  0  0  0  0  0  0  0  0  0
   -1.3594    1.1316   -0.2471 C   0  0  0  0  0  0  0  0  0  0  0  0
   -2.0557   -0.0131    0.1719 C   0  0  0  0  0  0  0  0  0  0  0  0
   -3.4899    0.0182    0.2974 N   0  0  0  0  0  0  0  0  0  0  0  0
   -4.1268    1.0136    1.1697 C   0  0  0  0  0  0  0  0  0  0  0  0
   -5.4240    1.5200    0.5338 C   0  0  0  0  0  0  0  0  0  0  0  0
   -6.3329    0.3481    0.1470 C   0  0  0  0  0  0  0  0  0  0  0  0
   -5.6035   -0.6192   -0.7919 C   0  0  0  0  0  0  0  0  0  0  0  0
   -4.2998   -1.1183   -0.1607 C   0  0  0  0  0  0  0  0  0  0  0  0
   -1.3363   -1.1845    0.4625 C   0  0  0  0  0  0  0  0  0  0  0  0
    0.0554   -1.2093    0.3355 C   0  0  0  0  0  0  0  0  0  0  0  0
    2.9552   -0.3993    0.9020 N   0  0  0  0  0  0  0  0  0  0  0  0
    4.3173   -0.4130    0.8928 C   0  0  0  0  0  0  0  0  0  0  0  0
    5.0297   -0.7177    2.0647 C   0  0  0  0  0  0  0  0  0  0  0  0
    6.4263   -0.7213    2.0599 C   0  0  0  0  0  0  0  0  0  0  0  0
    7.1238   -0.4205    0.8889 C   0  0  0  0  0  0  0  0  0  0  0  0
    6.4288   -0.1155   -0.2843 C   0  0  0  0  0  0  0  0  0  0  0  0
    5.0199   -0.1097   -0.2948 C   0  0  0  0  0  0  0  0  0  0  0  0
    4.2914    0.1874   -1.4599 C   0  0  0  0  0  0  0  0  0  0  0  0
    4.9002    0.4689   -2.5299 O   0  0  0  0  0  0  0  0  0  0  0  0
  1  2  1  0
  2  3  4  0
  3  4  1  0
  4  5  4  0
  5  6  4  0
  6  7  4  0
  7  8  1  0
  8  9  1  0
  9 10  1  0
 10 11  1  0
 11 12  1  0
 12 13  1  0
  7 14  4  0
 14 15  4  0
  3 16  4  0
 16 17  4  0
 17 18  4  0
 18 19  4  0
 19 20  4  0
 20 21  4  0
 21 22  4  0
 22 23  4  0
 23 24  2  0
 13  8  1  0
 15  4  4  0
 22 17  4  0
 23  2  4  0
M  END
>  <SMILES>  (8) 
Cc4c(c2ccc(N1CCCCC1)cc2)[nH]c3ccccc3c4=O

>  <NumConformers>  (8) 
8

>  <EnergyUnits>  (8) 
RDKit_forcefield

>  <Total_Conformers>  (8) 
8

>  <Energy>  (8) 
61.874371604639101

>  <Energy_Unit>  (8) 
RDKit_forcefield

>  <Rank>  (8) 
8

>  <Conformer_Index>  (8) 
7

$$$$
