RKA-73
     RDKit          3D

 30 33  0  0  0  0  0  0  0  0999 V2000
   -5.9831    1.4492   -1.3490 O   0  0  0  0  0  0  0  0  0  0  0  0
   -5.0801    0.8322   -0.7205 C   0  0  0  0  0  0  0  0  0  0  0  0
   -3.7506    1.1989   -0.9047 C   0  0  0  0  0  0  0  0  0  0  0  0
   -2.7327    0.5310   -0.2120 C   0  0  0  0  0  0  0  0  0  0  0  0
   -1.3418    1.0041   -0.3870 C   0  0  0  0  0  0  0  0  0  0  0  0
   -0.7510    1.0109   -1.6598 C   0  0  0  0  0  0  0  0  0  0  0  0
    0.5565    1.4755   -1.8276 C   0  0  0  0  0  0  0  0  0  0  0  0
    1.2843    1.9567   -0.7278 C   0  0  0  0  0  0  0  0  0  0  0  0
    2.7062    2.4165   -0.9011 C   0  0  0  0  0  0  0  0  0  0  0  0
    3.6510    1.2594   -0.7216 C   0  0  0  0  0  0  0  0  0  0  0  0
    4.1374    0.9333    0.5536 C   0  0  0  0  0  0  0  0  0  0  0  0
    4.9851   -0.1648    0.7276 C   0  0  0  0  0  0  0  0  0  0  0  0
    5.3521   -0.9609   -0.3749 C   0  0  0  0  0  0  0  0  0  0  0  0
    6.1993   -2.0748   -0.2590 O   0  0  0  0  0  0  0  0  0  0  0  0
    6.7875   -2.5398    0.9539 C   0  0  0  0  0  0  0  0  0  0  0  0
    7.5574   -3.6537    0.6804 F   0  0  0  0  0  0  0  0  0  0  0  0
    5.8012   -2.8908    1.8583 F   0  0  0  0  0  0  0  0  0  0  0  0
    7.5987   -1.5596    1.4970 F   0  0  0  0  0  0  0  0  0  0  0  0
    4.8549   -0.6382   -1.6431 C   0  0  0  0  0  0  0  0  0  0  0  0
    4.0074    0.4593   -1.8175 C   0  0  0  0  0  0  0  0  0  0  0  0
    0.6919    1.9514    0.5449 C   0  0  0  0  0  0  0  0  0  0  0  0
   -0.6154    1.4868    0.7126 C   0  0  0  0  0  0  0  0  0  0  0  0
   -3.0411   -0.5101    0.6321 N   0  0  0  0  0  0  0  0  0  0  0  0
   -2.0397   -1.2371    1.2544 O   0  0  0  0  0  0  0  0  0  0  0  0
   -4.3468   -0.8800    0.8420 C   0  0  0  0  0  0  0  0  0  0  0  0
   -4.6669   -1.9336    1.7233 C   0  0  0  0  0  0  0  0  0  0  0  0
   -5.9959   -2.3098    1.9288 C   0  0  0  0  0  0  0  0  0  0  0  0
   -7.0247   -1.6471    1.2608 C   0  0  0  0  0  0  0  0  0  0  0  0
   -6.7321   -0.6035    0.3818 C   0  0  0  0  0  0  0  0  0  0  0  0
   -5.3976   -0.2104    0.1632 C   0  0  0  0  0  0  0  0  0  0  0  0
  1  2  2  0
  2  3  4  0
  3  4  4  0
  4  5  1  0
  5  6  4  0
  6  7  4  0
  7  8  4  0
  8  9  1  0
  9 10  1  0
 10 11  4  0
 11 12  4  0
 12 13  4  0
 13 14  1  0
 14 15  1  0
 15 16  1  0
 15 17  1  0
 15 18  1  0
 13 19  4  0
 19 20  4  0
  8 21  4  0
 21 22  4  0
  4 23  4  0
 23 24  1  0
 23 25  4  0
 25 26  4  0
 26 27  4  0
 27 28  4  0
 28 29  4  0
 29 30  4  0
 20 10  4  0
 22  5  4  0
 30  2  4  0
 30 25  4  0
M  END
>  <SMILES>  (1) 
O=c3cc(c2ccc(Cc1ccc(OC(F)(F)F)cc1)cc2)n(O)c4ccccc34

>  <NumConformers>  (1) 
8

>  <EnergyUnits>  (1) 
RDKit_forcefield

>  <Total_Conformers>  (1) 
8

>  <Energy>  (1) 
64.278671869857249

>  <Energy_Unit>  (1) 
RDKit_forcefield

>  <Rank>  (1) 
1

>  <Conformer_Index>  (1) 
0

$$$$
RKA-73
     RDKit          3D

 30 33  0  0  0  0  0  0  0  0999 V2000
   -5.8914    2.2370    0.3277 O   0  0  0  0  0  0  0  0  0  0  0  0
   -5.0234    1.3216    0.3216 C   0  0  0  0  0  0  0  0  0  0  0  0
   -3.6991    1.6414    0.0388 C   0  0  0  0  0  0  0  0  0  0  0  0
   -2.7204    0.6394    0.0207 C   0  0  0  0  0  0  0  0  0  0  0  0
   -1.3404    1.0175   -0.3551 C   0  0  0  0  0  0  0  0  0  0  0  0
   -0.6388    1.9733    0.3955 C   0  0  0  0  0  0  0  0  0  0  0  0
    0.6579    2.3445    0.0287 C   0  0  0  0  0  0  0  0  0  0  0  0
    1.2635    1.7783   -1.1042 C   0  0  0  0  0  0  0  0  0  0  0  0
    2.6745    2.1463   -1.4743 C   0  0  0  0  0  0  0  0  0  0  0  0
    3.6477    1.2291   -0.7851 C   0  0  0  0  0  0  0  0  0  0  0  0
    4.0322    0.0218   -1.3882 C   0  0  0  0  0  0  0  0  0  0  0  0
    4.9071   -0.8493   -0.7322 C   0  0  0  0  0  0  0  0  0  0  0  0
    5.4044   -0.5277    0.5459 C   0  0  0  0  0  0  0  0  0  0  0  0
    6.2849   -1.3642    1.2509 O   0  0  0  0  0  0  0  0  0  0  0  0
    6.7815   -2.6171    0.7852 C   0  0  0  0  0  0  0  0  0  0  0  0
    7.4985   -2.4409   -0.3847 F   0  0  0  0  0  0  0  0  0  0  0  0
    7.6194   -3.1516    1.7446 F   0  0  0  0  0  0  0  0  0  0  0  0
    5.7341   -3.4947    0.5692 F   0  0  0  0  0  0  0  0  0  0  0  0
    5.0086    0.6724    1.1482 C   0  0  0  0  0  0  0  0  0  0  0  0
    4.1339    1.5434    0.4929 C   0  0  0  0  0  0  0  0  0  0  0  0
    0.5604    0.8235   -1.8556 C   0  0  0  0  0  0  0  0  0  0  0  0
   -0.7362    0.4524   -1.4888 C   0  0  0  0  0  0  0  0  0  0  0  0
   -3.0598   -0.6615    0.3109 N   0  0  0  0  0  0  0  0  0  0  0  0
   -2.0888   -1.6465    0.3845 O   0  0  0  0  0  0  0  0  0  0  0  0
   -4.3626   -1.0039    0.5777 C   0  0  0  0  0  0  0  0  0  0  0  0
   -4.7163   -2.3407    0.8546 C   0  0  0  0  0  0  0  0  0  0  0  0
   -6.0417   -2.6828    1.1312 C   0  0  0  0  0  0  0  0  0  0  0  0
   -7.0331   -1.7027    1.1387 C   0  0  0  0  0  0  0  0  0  0  0  0
   -6.7065   -0.3728    0.8701 C   0  0  0  0  0  0  0  0  0  0  0  0
   -5.3753   -0.0101    0.5885 C   0  0  0  0  0  0  0  0  0  0  0  0
  1  2  2  0
  2  3  4  0
  3  4  4  0
  4  5  1  0
  5  6  4  0
  6  7  4  0
  7  8  4  0
  8  9  1  0
  9 10  1  0
 10 11  4  0
 11 12  4  0
 12 13  4  0
 13 14  1  0
 14 15  1  0
 15 16  1  0
 15 17  1  0
 15 18  1  0
 13 19  4  0
 19 20  4  0
  8 21  4  0
 21 22  4  0
  4 23  4  0
 23 24  1  0
 23 25  4  0
 25 26  4  0
 26 27  4  0
 27 28  4  0
 28 29  4  0
 29 30  4  0
 20 10  4  0
 22  5  4  0
 30  2  4  0
 30 25  4  0
M  END
>  <SMILES>  (2) 
O=c3cc(c2ccc(Cc1ccc(OC(F)(F)F)cc1)cc2)n(O)c4ccccc34

>  <NumConformers>  (2) 
8

>  <EnergyUnits>  (2) 
RDKit_forcefield

>  <Total_Conformers>  (2) 
8

>  <Energy>  (2) 
64.278716418283764

>  <Energy_Unit>  (2) 
RDKit_forcefield

>  <Rank>  (2) 
2

>  <Conformer_Index>  (2) 
1

$$$$
RKA-73
     RDKit          3D

 30 33  0  0  0  0  0  0  0  0999 V2000
   -3.7988   -1.1835    3.3720 O   0  0  0  0  0  0  0  0  0  0  0  0
   -3.7921   -0.7797    2.1769 C   0  0  0  0  0  0  0  0  0  0  0  0
   -2.6021   -0.3226    1.6197 C   0  0  0  0  0  0  0  0  0  0  0  0
   -2.5710    0.1246    0.2926 C   0  0  0  0  0  0  0  0  0  0  0  0
   -1.2678    0.5330   -0.2769 C   0  0  0  0  0  0  0  0  0  0  0  0
   -0.5308    1.5711    0.3135 C   0  0  0  0  0  0  0  0  0  0  0  0
    0.7125    1.9387   -0.2088 C   0  0  0  0  0  0  0  0  0  0  0  0
    1.2356    1.2730   -1.3286 C   0  0  0  0  0  0  0  0  0  0  0  0
    2.5922    1.6410   -1.8651 C   0  0  0  0  0  0  0  0  0  0  0  0
    3.6594    0.8348   -1.1760 C   0  0  0  0  0  0  0  0  0  0  0  0
    4.2414    1.2996    0.0132 C   0  0  0  0  0  0  0  0  0  0  0  0
    5.2062    0.5339    0.6747 C   0  0  0  0  0  0  0  0  0  0  0  0
    5.5973   -0.7169    0.1584 C   0  0  0  0  0  0  0  0  0  0  0  0
    6.5604   -1.5279    0.7803 O   0  0  0  0  0  0  0  0  0  0  0  0
    7.2548   -1.2070    1.9837 C   0  0  0  0  0  0  0  0  0  0  0  0
    8.1213   -2.2384    2.2896 F   0  0  0  0  0  0  0  0  0  0  0  0
    6.3577   -1.0544    3.0257 F   0  0  0  0  0  0  0  0  0  0  0  0
    7.9864   -0.0448    1.8167 F   0  0  0  0  0  0  0  0  0  0  0  0
    5.0053   -1.1812   -1.0222 C   0  0  0  0  0  0  0  0  0  0  0  0
    4.0407   -0.4163   -1.6837 C   0  0  0  0  0  0  0  0  0  0  0  0
    0.5089    0.2186   -1.9039 C   0  0  0  0  0  0  0  0  0  0  0  0
   -0.7341   -0.1489   -1.3814 C   0  0  0  0  0  0  0  0  0  0  0  0
   -3.7240    0.1400   -0.4571 N   0  0  0  0  0  0  0  0  0  0  0  0
   -3.7269    0.6613   -1.7403 O   0  0  0  0  0  0  0  0  0  0  0  0
   -4.9072   -0.3207    0.0660 C   0  0  0  0  0  0  0  0  0  0  0  0
   -6.0864   -0.3253   -0.7078 C   0  0  0  0  0  0  0  0  0  0  0  0
   -7.2884   -0.7894   -0.1693 C   0  0  0  0  0  0  0  0  0  0  0  0
   -7.3367   -1.2530    1.1447 C   0  0  0  0  0  0  0  0  0  0  0  0
   -6.1833   -1.2554    1.9303 C   0  0  0  0  0  0  0  0  0  0  0  0
   -4.9625   -0.7917    1.4033 C   0  0  0  0  0  0  0  0  0  0  0  0
  1  2  2  0
  2  3  4  0
  3  4  4  0
  4  5  1  0
  5  6  4  0
  6  7  4  0
  7  8  4  0
  8  9  1  0
  9 10  1  0
 10 11  4  0
 11 12  4  0
 12 13  4  0
 13 14  1  0
 14 15  1  0
 15 16  1  0
 15 17  1  0
 15 18  1  0
 13 19  4  0
 19 20  4  0
  8 21  4  0
 21 22  4  0
  4 23  4  0
 23 24  1  0
 23 25  4  0
 25 26  4  0
 26 27  4  0
 27 28  4  0
 28 29  4  0
 29 30  4  0
 20 10  4  0
 22  5  4  0
 30  2  4  0
 30 25  4  0
M  END
>  <SMILES>  (3) 
O=c3cc(c2ccc(Cc1ccc(OC(F)(F)F)cc1)cc2)n(O)c4ccccc34

>  <NumConformers>  (3) 
8

>  <EnergyUnits>  (3) 
RDKit_forcefield

>  <Total_Conformers>  (3) 
8

>  <Energy>  (3) 
64.292736824428772

>  <Energy_Unit>  (3) 
RDKit_forcefield

>  <Rank>  (3) 
3

>  <Conformer_Index>  (3) 
2

$$$$
RKA-73
     RDKit          3D

 30 33  0  0  0  0  0  0  0  0999 V2000
   -3.7759   -2.8494    2.1803 O   0  0  0  0  0  0  0  0  0  0  0  0
   -3.7775   -1.8487    1.4123 C   0  0  0  0  0  0  0  0  0  0  0  0
   -2.5866   -1.4474    0.8151 C   0  0  0  0  0  0  0  0  0  0  0  0
   -2.5647   -0.3353   -0.0365 C   0  0  0  0  0  0  0  0  0  0  0  0
   -1.2618    0.0954   -0.5900 C   0  0  0  0  0  0  0  0  0  0  0  0
   -0.4985   -0.7851   -1.3720 C   0  0  0  0  0  0  0  0  0  0  0  0
    0.7443   -0.3870   -1.8725 C   0  0  0  0  0  0  0  0  0  0  0  0
    1.2408    0.8971   -1.5975 C   0  0  0  0  0  0  0  0  0  0  0  0
    2.5967    1.3105   -2.1015 C   0  0  0  0  0  0  0  0  0  0  0  0
    3.6580    0.9380   -1.1022 C   0  0  0  0  0  0  0  0  0  0  0  0
    4.2637   -0.3267   -1.1503 C   0  0  0  0  0  0  0  0  0  0  0  0
    5.2230   -0.6881   -0.1996 C   0  0  0  0  0  0  0  0  0  0  0  0
    5.5845    0.2113    0.8224 C   0  0  0  0  0  0  0  0  0  0  0  0
    6.5408   -0.0979    1.8033 O   0  0  0  0  0  0  0  0  0  0  0  0
    7.2565   -1.3277    1.8973 C   0  0  0  0  0  0  0  0  0  0  0  0
    8.1080   -1.2686    2.9834 F   0  0  0  0  0  0  0  0  0  0  0  0
    6.3759   -2.3793    2.0779 F   0  0  0  0  0  0  0  0  0  0  0  0
    8.0068   -1.5315    0.7531 F   0  0  0  0  0  0  0  0  0  0  0  0
    4.9690    1.4676    0.8728 C   0  0  0  0  0  0  0  0  0  0  0  0
    4.0099    1.8292   -0.0773 C   0  0  0  0  0  0  0  0  0  0  0  0
    0.4877    1.7687   -0.7951 C   0  0  0  0  0  0  0  0  0  0  0  0
   -0.7550    1.3704   -0.2946 C   0  0  0  0  0  0  0  0  0  0  0  0
   -3.7269    0.3482   -0.3081 N   0  0  0  0  0  0  0  0  0  0  0  0
   -3.7370    1.3941   -1.2160 O   0  0  0  0  0  0  0  0  0  0  0  0
   -4.9113   -0.0195    0.2814 C   0  0  0  0  0  0  0  0  0  0  0  0
   -6.1004    0.6928    0.0205 C   0  0  0  0  0  0  0  0  0  0  0  0
   -7.3034    0.3113    0.6181 C   0  0  0  0  0  0  0  0  0  0  0  0
   -7.3431   -0.7834    1.4806 C   0  0  0  0  0  0  0  0  0  0  0  0
   -6.1799   -1.5051    1.7516 C   0  0  0  0  0  0  0  0  0  0  0  0
   -4.9578   -1.1340    1.1584 C   0  0  0  0  0  0  0  0  0  0  0  0
  1  2  2  0
  2  3  4  0
  3  4  4  0
  4  5  1  0
  5  6  4  0
  6  7  4  0
  7  8  4  0
  8  9  1  0
  9 10  1  0
 10 11  4  0
 11 12  4  0
 12 13  4  0
 13 14  1  0
 14 15  1  0
 15 16  1  0
 15 17  1  0
 15 18  1  0
 13 19  4  0
 19 20  4  0
  8 21  4  0
 21 22  4  0
  4 23  4  0
 23 24  1  0
 23 25  4  0
 25 26  4  0
 26 27  4  0
 27 28  4  0
 28 29  4  0
 29 30  4  0
 20 10  4  0
 22  5  4  0
 30  2  4  0
 30 25  4  0
M  END
>  <SMILES>  (4) 
O=c3cc(c2ccc(Cc1ccc(OC(F)(F)F)cc1)cc2)n(O)c4ccccc34

>  <NumConformers>  (4) 
8

>  <EnergyUnits>  (4) 
RDKit_forcefield

>  <Total_Conformers>  (4) 
8

>  <Energy>  (4) 
64.292736880450363

>  <Energy_Unit>  (4) 
RDKit_forcefield

>  <Rank>  (4) 
4

>  <Conformer_Index>  (4) 
3

$$$$
RKA-73
     RDKit          3D

 30 33  0  0  0  0  0  0  0  0999 V2000
   -3.9226   -3.1526    1.6773 O   0  0  0  0  0  0  0  0  0  0  0  0
   -3.8664   -2.0314    1.1013 C   0  0  0  0  0  0  0  0  0  0  0  0
   -2.6721   -1.6283    0.5127 C   0  0  0  0  0  0  0  0  0  0  0  0
   -2.5867   -0.3854   -0.1293 C   0  0  0  0  0  0  0  0  0  0  0  0
   -1.2741    0.0352   -0.6682 C   0  0  0  0  0  0  0  0  0  0  0  0
   -0.6128   -0.7535   -1.6217 C   0  0  0  0  0  0  0  0  0  0  0  0
    0.6378   -0.3670   -2.1119 C   0  0  0  0  0  0  0  0  0  0  0  0
    1.2434    0.8143   -1.6561 C   0  0  0  0  0  0  0  0  0  0  0  0
    2.6055    1.2119   -2.1556 C   0  0  0  0  0  0  0  0  0  0  0  0
    3.6734    0.6599   -1.2509 C   0  0  0  0  0  0  0  0  0  0  0  0
    4.1372    1.4114   -0.1606 C   0  0  0  0  0  0  0  0  0  0  0  0
    5.1064    0.8866    0.6996 C   0  0  0  0  0  0  0  0  0  0  0  0
    5.6211   -0.4071    0.4845 C   0  0  0  0  0  0  0  0  0  0  0  0
    6.5959   -0.9845    1.3143 O   0  0  0  0  0  0  0  0  0  0  0  0
    7.1743   -0.3645    2.4602 C   0  0  0  0  0  0  0  0  0  0  0  0
    7.8353    0.7929    2.0914 F   0  0  0  0  0  0  0  0  0  0  0  0
    8.0834   -1.2343    3.0307 F   0  0  0  0  0  0  0  0  0  0  0  0
    6.1943   -0.0719    3.3907 F   0  0  0  0  0  0  0  0  0  0  0  0
    5.1458   -1.1579   -0.5976 C   0  0  0  0  0  0  0  0  0  0  0  0
    4.1767   -0.6336   -1.4574 C   0  0  0  0  0  0  0  0  0  0  0  0
    0.5927    1.5897   -0.6844 C   0  0  0  0  0  0  0  0  0  0  0  0
   -0.6566    1.2023   -0.1927 C   0  0  0  0  0  0  0  0  0  0  0  0
   -3.6936    0.4279   -0.2079 N   0  0  0  0  0  0  0  0  0  0  0  0
   -3.6514    1.6141   -0.9224 O   0  0  0  0  0  0  0  0  0  0  0  0
   -4.8774    0.0603    0.3829 C   0  0  0  0  0  0  0  0  0  0  0  0
   -6.0057    0.9046    0.3277 C   0  0  0  0  0  0  0  0  0  0  0  0
   -7.2087    0.5242    0.9257 C   0  0  0  0  0  0  0  0  0  0  0  0
   -7.3088   -0.7002    1.5846 C   0  0  0  0  0  0  0  0  0  0  0  0
   -6.2067   -1.5540    1.6494 C   0  0  0  0  0  0  0  0  0  0  0  0
   -4.9855   -1.1861    1.0525 C   0  0  0  0  0  0  0  0  0  0  0  0
  1  2  2  0
  2  3  4  0
  3  4  4  0
  4  5  1  0
  5  6  4  0
  6  7  4  0
  7  8  4  0
  8  9  1  0
  9 10  1  0
 10 11  4  0
 11 12  4  0
 12 13  4  0
 13 14  1  0
 14 15  1  0
 15 16  1  0
 15 17  1  0
 15 18  1  0
 13 19  4  0
 19 20  4  0
  8 21  4  0
 21 22  4  0
  4 23  4  0
 23 24  1  0
 23 25  4  0
 25 26  4  0
 26 27  4  0
 27 28  4  0
 28 29  4  0
 29 30  4  0
 20 10  4  0
 22  5  4  0
 30  2  4  0
 30 25  4  0
M  END
>  <SMILES>  (5) 
O=c3cc(c2ccc(Cc1ccc(OC(F)(F)F)cc1)cc2)n(O)c4ccccc34

>  <NumConformers>  (5) 
8

>  <EnergyUnits>  (5) 
RDKit_forcefield

>  <Total_Conformers>  (5) 
8

>  <Energy>  (5) 
64.314367061672556

>  <Energy_Unit>  (5) 
RDKit_forcefield

>  <Rank>  (5) 
5

>  <Conformer_Index>  (5) 
4

$$$$
RKA-73
     RDKit          3D

 30 33  0  0  0  0  0  0  0  0999 V2000
   -5.5042   -2.4270   -1.4807 O   0  0  0  0  0  0  0  0  0  0  0  0
   -4.7793   -1.6134   -0.8449 C   0  0  0  0  0  0  0  0  0  0  0  0
   -3.4817   -1.3775   -1.2814 C   0  0  0  0  0  0  0  0  0  0  0  0
   -2.6559   -0.4868   -0.5857 C   0  0  0  0  0  0  0  0  0  0  0  0
   -1.2771   -0.2547   -1.0824 C   0  0  0  0  0  0  0  0  0  0  0  0
   -0.8097    1.0525   -1.2949 C   0  0  0  0  0  0  0  0  0  0  0  0
    0.4866    1.2718   -1.7691 C   0  0  0  0  0  0  0  0  0  0  0  0
    1.3312    0.1871   -2.0509 C   0  0  0  0  0  0  0  0  0  0  0  0
    2.7405    0.4246   -2.5210 C   0  0  0  0  0  0  0  0  0  0  0  0
    3.6678    0.5430   -1.3421 C   0  0  0  0  0  0  0  0  0  0  0  0
    4.2711   -0.6009   -0.7976 C   0  0  0  0  0  0  0  0  0  0  0  0
    5.1031   -0.4971    0.3212 C   0  0  0  0  0  0  0  0  0  0  0  0
    5.3367    0.7567    0.9191 C   0  0  0  0  0  0  0  0  0  0  0  0
    6.1620    0.9202    2.0434 O   0  0  0  0  0  0  0  0  0  0  0  0
    6.8568   -0.1286    2.7148 C   0  0  0  0  0  0  0  0  0  0  0  0
    7.5662    0.4086    3.7715 F   0  0  0  0  0  0  0  0  0  0  0  0
    7.7436   -0.7437    1.8493 F   0  0  0  0  0  0  0  0  0  0  0  0
    5.9576   -1.0571    3.2078 F   0  0  0  0  0  0  0  0  0  0  0  0
    4.7233    1.8933    0.3790 C   0  0  0  0  0  0  0  0  0  0  0  0
    3.8915    1.7900   -0.7393 C   0  0  0  0  0  0  0  0  0  0  0  0
    0.8673   -1.1197   -1.8352 C   0  0  0  0  0  0  0  0  0  0  0  0
   -0.4291   -1.3394   -1.3616 C   0  0  0  0  0  0  0  0  0  0  0  0
   -3.1136    0.1432    0.5443 N   0  0  0  0  0  0  0  0  0  0  0  0
   -2.2018    0.9000    1.2624 O   0  0  0  0  0  0  0  0  0  0  0  0
   -4.4147   -0.0316    0.9723 C   0  0  0  0  0  0  0  0  0  0  0  0
   -4.9466    0.6868    2.0690 C   0  0  0  0  0  0  0  0  0  0  0  0
   -6.2603    0.4755    2.4930 C   0  0  0  0  0  0  0  0  0  0  0  0
   -7.0749   -0.4398    1.8324 C   0  0  0  0  0  0  0  0  0  0  0  0
   -6.5882   -1.1397    0.7304 C   0  0  0  0  0  0  0  0  0  0  0  0
   -5.2679   -0.9381    0.2836 C   0  0  0  0  0  0  0  0  0  0  0  0
  1  2  2  0
  2  3  4  0
  3  4  4  0
  4  5  1  0
  5  6  4  0
  6  7  4  0
  7  8  4  0
  8  9  1  0
  9 10  1  0
 10 11  4  0
 11 12  4  0
 12 13  4  0
 13 14  1  0
 14 15  1  0
 15 16  1  0
 15 17  1  0
 15 18  1  0
 13 19  4  0
 19 20  4  0
  8 21  4  0
 21 22  4  0
  4 23  4  0
 23 24  1  0
 23 25  4  0
 25 26  4  0
 26 27  4  0
 27 28  4  0
 28 29  4  0
 29 30  4  0
 20 10  4  0
 22  5  4  0
 30  2  4  0
 30 25  4  0
M  END
>  <SMILES>  (6) 
O=c3cc(c2ccc(Cc1ccc(OC(F)(F)F)cc1)cc2)n(O)c4ccccc34

>  <NumConformers>  (6) 
8

>  <EnergyUnits>  (6) 
RDKit_forcefield

>  <Total_Conformers>  (6) 
8

>  <Energy>  (6) 
66.349412865938632

>  <Energy_Unit>  (6) 
RDKit_forcefield

>  <Rank>  (6) 
6

>  <Conformer_Index>  (6) 
5

$$$$
RKA-73
     RDKit          3D

 30 33  0  0  0  0  0  0  0  0999 V2000
   -5.8078    1.1799   -1.7988 O   0  0  0  0  0  0  0  0  0  0  0  0
   -4.9674    0.6210   -1.0419 C   0  0  0  0  0  0  0  0  0  0  0  0
   -3.6424    0.5314   -1.4496 C   0  0  0  0  0  0  0  0  0  0  0  0
   -2.6906   -0.0753   -0.6220 C   0  0  0  0  0  0  0  0  0  0  0  0
   -1.2852   -0.1581   -1.0908 C   0  0  0  0  0  0  0  0  0  0  0  0
   -0.6044   -1.3864   -1.0797 C   0  0  0  0  0  0  0  0  0  0  0  0
    0.7171   -1.4666   -1.5275 C   0  0  0  0  0  0  0  0  0  0  0  0
    1.3741   -0.3224   -2.0058 C   0  0  0  0  0  0  0  0  0  0  0  0
    2.8100   -0.4008   -2.4481 C   0  0  0  0  0  0  0  0  0  0  0  0
    3.7268   -0.1569   -1.2803 C   0  0  0  0  0  0  0  0  0  0  0  0
    4.1237    1.1483   -0.9518 C   0  0  0  0  0  0  0  0  0  0  0  0
    4.9450    1.3801    0.1556 C   0  0  0  0  0  0  0  0  0  0  0  0
    5.3750    0.3058    0.9587 C   0  0  0  0  0  0  0  0  0  0  0  0
    6.1996    0.4796    2.0820 O   0  0  0  0  0  0  0  0  0  0  0  0
    6.7004    1.7297    2.5509 C   0  0  0  0  0  0  0  0  0  0  0  0
    7.4851    2.3239    1.5787 F   0  0  0  0  0  0  0  0  0  0  0  0
    5.6522    2.5670    2.8883 F   0  0  0  0  0  0  0  0  0  0  0  0
    7.4738    1.5097    3.6741 F   0  0  0  0  0  0  0  0  0  0  0  0
    4.9669   -0.9932    0.6334 C   0  0  0  0  0  0  0  0  0  0  0  0
    4.1458   -1.2254   -0.4734 C   0  0  0  0  0  0  0  0  0  0  0  0
    0.6967    0.9066   -2.0137 C   0  0  0  0  0  0  0  0  0  0  0  0
   -0.6250    0.9870   -1.5665 C   0  0  0  0  0  0  0  0  0  0  0  0
   -3.0539   -0.5664    0.6070 N   0  0  0  0  0  0  0  0  0  0  0  0
   -2.0398   -1.0251    1.4322 O   0  0  0  0  0  0  0  0  0  0  0  0
   -4.3722   -0.5383    1.0170 C   0  0  0  0  0  0  0  0  0  0  0  0
   -4.7935   -1.1333    2.2295 C   0  0  0  0  0  0  0  0  0  0  0  0
   -6.1302   -1.0724    2.6294 C   0  0  0  0  0  0  0  0  0  0  0  0
   -7.0756   -0.4339    1.8317 C   0  0  0  0  0  0  0  0  0  0  0  0
   -6.6956    0.1348    0.6179 C   0  0  0  0  0  0  0  0  0  0  0  0
   -5.3537    0.0804    0.1938 C   0  0  0  0  0  0  0  0  0  0  0  0
  1  2  2  0
  2  3  4  0
  3  4  4  0
  4  5  1  0
  5  6  4  0
  6  7  4  0
  7  8  4  0
  8  9  1  0
  9 10  1  0
 10 11  4  0
 11 12  4  0
 12 13  4  0
 13 14  1  0
 14 15  1  0
 15 16  1  0
 15 17  1  0
 15 18  1  0
 13 19  4  0
 19 20  4  0
  8 21  4  0
 21 22  4  0
  4 23  4  0
 23 24  1  0
 23 25  4  0
 25 26  4  0
 26 27  4  0
 27 28  4  0
 28 29  4  0
 29 30  4  0
 20 10  4  0
 22  5  4  0
 30  2  4  0
 30 25  4  0
M  END
>  <SMILES>  (7) 
O=c3cc(c2ccc(Cc1ccc(OC(F)(F)F)cc1)cc2)n(O)c4ccccc34

>  <NumConformers>  (7) 
8

>  <EnergyUnits>  (7) 
RDKit_forcefield

>  <Total_Conformers>  (7) 
8

>  <Energy>  (7) 
66.34941587660505

>  <Energy_Unit>  (7) 
RDKit_forcefield

>  <Rank>  (7) 
7

>  <Conformer_Index>  (7) 
6

$$$$
RKA-73
     RDKit          3D

 30 33  0  0  0  0  0  0  0  0999 V2000
   -4.5006    2.7441    0.9146 O   0  0  0  0  0  0  0  0  0  0  0  0
   -4.2027    1.5477    0.6471 C   0  0  0  0  0  0  0  0  0  0  0  0
   -2.9260    1.2543    0.1847 C   0  0  0  0  0  0  0  0  0  0  0  0
   -2.5763   -0.0644   -0.1284 C   0  0  0  0  0  0  0  0  0  0  0  0
   -1.2023   -0.3433   -0.6144 C   0  0  0  0  0  0  0  0  0  0  0  0
   -0.6539    0.4062   -1.6686 C   0  0  0  0  0  0  0  0  0  0  0  0
    0.6449    0.1505   -2.1172 C   0  0  0  0  0  0  0  0  0  0  0  0
    1.4143   -0.8606   -1.5214 C   0  0  0  0  0  0  0  0  0  0  0  0
    2.8269   -1.1075   -1.9767 C   0  0  0  0  0  0  0  0  0  0  0  0
    3.7816   -0.2416   -1.2004 C   0  0  0  0  0  0  0  0  0  0  0  0
    4.3227   -0.6945    0.0124 C   0  0  0  0  0  0  0  0  0  0  0  0
    5.1805    0.1238    0.7535 C   0  0  0  0  0  0  0  0  0  0  0  0
    5.5032    1.4156    0.2941 C   0  0  0  0  0  0  0  0  0  0  0  0
    6.3583    2.2802    0.9966 O   0  0  0  0  0  0  0  0  0  0  0  0
    6.9990    1.9789    2.2343 C   0  0  0  0  0  0  0  0  0  0  0  0
    7.7604    3.0648    2.6207 F   0  0  0  0  0  0  0  0  0  0  0  0
    6.0532    1.7270    3.2120 F   0  0  0  0  0  0  0  0  0  0  0  0
    7.8291    0.8821    2.0870 F   0  0  0  0  0  0  0  0  0  0  0  0
    4.9517    1.8671   -0.9108 C   0  0  0  0  0  0  0  0  0  0  0  0
    4.0940    1.0495   -1.6519 C   0  0  0  0  0  0  0  0  0  0  0  0
    0.8749   -1.5972   -0.4556 C   0  0  0  0  0  0  0  0  0  0  0  0
   -0.4240   -1.3421   -0.0071 C   0  0  0  0  0  0  0  0  0  0  0  0
   -3.4974   -1.0738   -0.0012 N   0  0  0  0  0  0  0  0  0  0  0  0
   -3.1306   -2.3289   -0.4595 O   0  0  0  0  0  0  0  0  0  0  0  0
   -4.7570   -0.8208    0.5046 C   0  0  0  0  0  0  0  0  0  0  0  0
   -5.6898   -1.8564    0.7480 C   0  0  0  0  0  0  0  0  0  0  0  0
   -6.9643   -1.5697    1.2414 C   0  0  0  0  0  0  0  0  0  0  0  0
   -7.3345   -0.2560    1.5151 C   0  0  0  0  0  0  0  0  0  0  0  0
   -6.4268    0.7816    1.3139 C   0  0  0  0  0  0  0  0  0  0  0  0
   -5.1348    0.5137    0.8215 C   0  0  0  0  0  0  0  0  0  0  0  0
  1  2  2  0
  2  3  4  0
  3  4  4  0
  4  5  1  0
  5  6  4  0
  6  7  4  0
  7  8  4  0
  8  9  1  0
  9 10  1  0
 10 11  4  0
 11 12  4  0
 12 13  4  0
 13 14  1  0
 14 15  1  0
 15 16  1  0
 15 17  1  0
 15 18  1  0
 13 19  4  0
 19 20  4  0
  8 21  4  0
 21 22  4  0
  4 23  4  0
 23 24  1  0
 23 25  4  0
 25 26  4  0
 26 27  4  0
 27 28  4  0
 28 29  4  0
 29 30  4  0
 20 10  4  0
 22  5  4  0
 30  2  4  0
 30 25  4  0
M  END
>  <SMILES>  (8) 
O=c3cc(c2ccc(Cc1ccc(OC(F)(F)F)cc1)cc2)n(O)c4ccccc34

>  <NumConformers>  (8) 
8

>  <EnergyUnits>  (8) 
RDKit_forcefield

>  <Total_Conformers>  (8) 
8

>  <Energy>  (8) 
66.355329123222916

>  <Energy_Unit>  (8) 
RDKit_forcefield

>  <Rank>  (8) 
8

>  <Conformer_Index>  (8) 
7

$$$$
