RKA-310
     RDKit          3D

 26 29  0  0  0  0  0  0  0  0999 V2000
    6.7434   -0.3066   -2.9478 C   0  0  0  0  0  0  0  0  0  0  0  0
    7.0571   -0.0012   -1.5929 O   0  0  0  0  0  0  0  0  0  0  0  0
    6.1066    0.1356   -0.5700 C   0  0  0  0  0  0  0  0  0  0  0  0
    6.5585    0.4381    0.7177 C   0  0  0  0  0  0  0  0  0  0  0  0
    5.6564    0.5850    1.7735 C   0  0  0  0  0  0  0  0  0  0  0  0
    4.2750    0.4296    1.5559 C   0  0  0  0  0  0  0  0  0  0  0  0
    3.3435    0.5659    2.6002 C   0  0  0  0  0  0  0  0  0  0  0  0
    3.7395    0.8454    3.7664 O   0  0  0  0  0  0  0  0  0  0  0  0
    1.9686    0.3884    2.3483 C   0  0  0  0  0  0  0  0  0  0  0  0
    0.9750    0.5018    3.4828 C   0  0  0  0  0  0  0  0  0  0  0  0
    1.5467    0.1274    1.0212 C   0  0  0  0  0  0  0  0  0  0  0  0
    0.1135   -0.0038    0.6707 C   0  0  0  0  0  0  0  0  0  0  0  0
   -0.7759    1.0605    0.8849 C   0  0  0  0  0  0  0  0  0  0  0  0
   -2.1230    0.9351    0.5349 C   0  0  0  0  0  0  0  0  0  0  0  0
   -2.5997   -0.2518   -0.0435 C   0  0  0  0  0  0  0  0  0  0  0  0
   -3.9886   -0.3730   -0.4046 N   0  0  0  0  0  0  0  0  0  0  0  0
   -5.0289   -0.1720    0.6128 C   0  0  0  0  0  0  0  0  0  0  0  0
   -6.2283    0.5592    0.0044 C   0  0  0  0  0  0  0  0  0  0  0  0
   -6.7149   -0.1550   -1.2613 C   0  0  0  0  0  0  0  0  0  0  0  0
   -5.5790   -0.2876   -2.2817 C   0  0  0  0  0  0  0  0  0  0  0  0
   -4.3740   -1.0099   -1.6708 C   0  0  0  0  0  0  0  0  0  0  0  0
   -1.7036   -1.3090   -0.2751 C   0  0  0  0  0  0  0  0  0  0  0  0
   -0.3565   -1.1837    0.0759 C   0  0  0  0  0  0  0  0  0  0  0  0
    2.4735   -0.0151    0.0297 N   0  0  0  0  0  0  0  0  0  0  0  0
    3.8094    0.1259    0.2586 C   0  0  0  0  0  0  0  0  0  0  0  0
    4.7262   -0.0196   -0.7961 C   0  0  0  0  0  0  0  0  0  0  0  0
  1  2  1  0
  2  3  1  0
  3  4  4  0
  4  5  4  0
  5  6  4  0
  6  7  4  0
  7  8  2  0
  7  9  4  0
  9 10  1  0
  9 11  4  0
 11 12  1  0
 12 13  4  0
 13 14  4  0
 14 15  4  0
 15 16  1  0
 16 17  1  0
 17 18  1  0
 18 19  1  0
 19 20  1  0
 20 21  1  0
 15 22  4  0
 22 23  4  0
 11 24  4  0
 24 25  4  0
 25 26  4  0
 21 16  1  0
 23 12  4  0
 25  6  4  0
 26  3  4  0
M  END
>  <SMILES>  (1) 
COc4ccc3c(=O)c(C)c(c2ccc(N1CCCCC1)cc2)[nH]c3c4

>  <NumConformers>  (1) 
10

>  <EnergyUnits>  (1) 
RDKit_forcefield

>  <Total_Conformers>  (1) 
10

>  <Energy>  (1) 
65.065816955449947

>  <Energy_Unit>  (1) 
RDKit_forcefield

>  <Rank>  (1) 
1

>  <Conformer_Index>  (1) 
0

$$$$
RKA-310
     RDKit          3D

 26 29  0  0  0  0  0  0  0  0999 V2000
    6.7357   -0.0138   -2.9805 C   0  0  0  0  0  0  0  0  0  0  0  0
    7.0569    0.0038   -1.5934 O   0  0  0  0  0  0  0  0  0  0  0  0
    6.1089    0.0470   -0.5601 C   0  0  0  0  0  0  0  0  0  0  0  0
    6.5684    0.0600    0.7600 C   0  0  0  0  0  0  0  0  0  0  0  0
    5.6691    0.1030    1.8274 C   0  0  0  0  0  0  0  0  0  0  0  0
    4.2828    0.1348    1.5888 C   0  0  0  0  0  0  0  0  0  0  0  0
    3.3535    0.1842    2.6429 C   0  0  0  0  0  0  0  0  0  0  0  0
    3.7567    0.1898    3.8397 O   0  0  0  0  0  0  0  0  0  0  0  0
    1.9727    0.2302    2.3660 C   0  0  0  0  0  0  0  0  0  0  0  0
    0.9798    0.3186    3.5033 C   0  0  0  0  0  0  0  0  0  0  0  0
    1.5456    0.1699    1.0165 C   0  0  0  0  0  0  0  0  0  0  0  0
    0.1096    0.1460    0.6539 C   0  0  0  0  0  0  0  0  0  0  0  0
   -0.7247   -0.8895    1.1028 C   0  0  0  0  0  0  0  0  0  0  0  0
   -2.0745   -0.9143    0.7416 C   0  0  0  0  0  0  0  0  0  0  0  0
   -2.6087    0.0894   -0.0816 C   0  0  0  0  0  0  0  0  0  0  0  0
   -3.9999    0.0558   -0.4525 N   0  0  0  0  0  0  0  0  0  0  0  0
   -5.0342    0.0306    0.5901 C   0  0  0  0  0  0  0  0  0  0  0  0
   -6.1906   -0.8780    0.1650 C   0  0  0  0  0  0  0  0  0  0  0  0
   -6.7062   -0.4869   -1.2242 C   0  0  0  0  0  0  0  0  0  0  0  0
   -5.5728   -0.5240   -2.2553 C   0  0  0  0  0  0  0  0  0  0  0  0
   -4.4104    0.3768   -1.8258 C   0  0  0  0  0  0  0  0  0  0  0  0
   -1.7672    1.1144   -0.5459 C   0  0  0  0  0  0  0  0  0  0  0  0
   -0.4175    1.1396   -0.1838 C   0  0  0  0  0  0  0  0  0  0  0  0
    2.4695    0.1379    0.0126 N   0  0  0  0  0  0  0  0  0  0  0  0
    3.8096    0.1203    0.2592 C   0  0  0  0  0  0  0  0  0  0  0  0
    4.7237    0.0768   -0.8069 C   0  0  0  0  0  0  0  0  0  0  0  0
  1  2  1  0
  2  3  1  0
  3  4  4  0
  4  5  4  0
  5  6  4  0
  6  7  4  0
  7  8  2  0
  7  9  4  0
  9 10  1  0
  9 11  4  0
 11 12  1  0
 12 13  4  0
 13 14  4  0
 14 15  4  0
 15 16  1  0
 16 17  1  0
 17 18  1  0
 18 19  1  0
 19 20  1  0
 20 21  1  0
 15 22  4  0
 22 23  4  0
 11 24  4  0
 24 25  4  0
 25 26  4  0
 21 16  1  0
 23 12  4  0
 25  6  4  0
 26  3  4  0
M  END
>  <SMILES>  (2) 
COc4ccc3c(=O)c(C)c(c2ccc(N1CCCCC1)cc2)[nH]c3c4

>  <NumConformers>  (2) 
10

>  <EnergyUnits>  (2) 
RDKit_forcefield

>  <Total_Conformers>  (2) 
10

>  <Energy>  (2) 
65.065816958172945

>  <Energy_Unit>  (2) 
RDKit_forcefield

>  <Rank>  (2) 
2

>  <Conformer_Index>  (2) 
1

$$$$
RKA-310
     RDKit          3D

 26 29  0  0  0  0  0  0  0  0999 V2000
    6.7650    0.0618   -2.9544 C   0  0  0  0  0  0  0  0  0  0  0  0
    7.0745    0.1667   -1.5685 O   0  0  0  0  0  0  0  0  0  0  0  0
    6.1182    0.2020   -0.5425 C   0  0  0  0  0  0  0  0  0  0  0  0
    6.5666    0.3074    0.7773 C   0  0  0  0  0  0  0  0  0  0  0  0
    5.6586    0.3472    1.8375 C   0  0  0  0  0  0  0  0  0  0  0  0
    4.2747    0.2823    1.5919 C   0  0  0  0  0  0  0  0  0  0  0  0
    3.3367    0.3260    2.6384 C   0  0  0  0  0  0  0  0  0  0  0  0
    3.7301    0.4147    3.8351 O   0  0  0  0  0  0  0  0  0  0  0  0
    1.9577    0.2738    2.3537 C   0  0  0  0  0  0  0  0  0  0  0  0
    0.9530    0.3566    3.4811 C   0  0  0  0  0  0  0  0  0  0  0  0
    1.5448    0.1216    1.0070 C   0  0  0  0  0  0  0  0  0  0  0  0
    0.1155   -0.0077    0.6400 C   0  0  0  0  0  0  0  0  0  0  0  0
   -0.6575   -1.0691    1.1357 C   0  0  0  0  0  0  0  0  0  0  0  0
   -2.0007   -1.1939    0.7706 C   0  0  0  0  0  0  0  0  0  0  0  0
   -2.5879   -0.2668   -0.1066 C   0  0  0  0  0  0  0  0  0  0  0  0
   -3.9724   -0.3877   -0.4840 N   0  0  0  0  0  0  0  0  0  0  0  0
   -4.9854   -0.7481    0.5166 C   0  0  0  0  0  0  0  0  0  0  0  0
   -6.2856    0.0184    0.2537 C   0  0  0  0  0  0  0  0  0  0  0  0
   -6.7369   -0.1489   -1.2014 C   0  0  0  0  0  0  0  0  0  0  0  0
   -5.6322    0.2925   -2.1677 C   0  0  0  0  0  0  0  0  0  0  0  0
   -4.3386   -0.4824   -1.9034 C   0  0  0  0  0  0  0  0  0  0  0  0
   -1.8086    0.7858   -0.6119 C   0  0  0  0  0  0  0  0  0  0  0  0
   -0.4655    0.9110   -0.2460 C   0  0  0  0  0  0  0  0  0  0  0  0
    2.4760    0.0975    0.0098 N   0  0  0  0  0  0  0  0  0  0  0  0
    3.8129    0.1741    0.2626 C   0  0  0  0  0  0  0  0  0  0  0  0
    4.7356    0.1348   -0.7962 C   0  0  0  0  0  0  0  0  0  0  0  0
  1  2  1  0
  2  3  1  0
  3  4  4  0
  4  5  4  0
  5  6  4  0
  6  7  4  0
  7  8  2  0
  7  9  4  0
  9 10  1  0
  9 11  4  0
 11 12  1  0
 12 13  4  0
 13 14  4  0
 14 15  4  0
 15 16  1  0
 16 17  1  0
 17 18  1  0
 18 19  1  0
 19 20  1  0
 20 21  1  0
 15 22  4  0
 22 23  4  0
 11 24  4  0
 24 25  4  0
 25 26  4  0
 21 16  1  0
 23 12  4  0
 25  6  4  0
 26  3  4  0
M  END
>  <SMILES>  (3) 
COc4ccc3c(=O)c(C)c(c2ccc(N1CCCCC1)cc2)[nH]c3c4

>  <NumConformers>  (3) 
10

>  <EnergyUnits>  (3) 
RDKit_forcefield

>  <Total_Conformers>  (3) 
10

>  <Energy>  (3) 
65.071313304185765

>  <Energy_Unit>  (3) 
RDKit_forcefield

>  <Rank>  (3) 
3

>  <Conformer_Index>  (3) 
2

$$$$
RKA-310
     RDKit          3D

 26 29  0  0  0  0  0  0  0  0999 V2000
    6.7769   -0.3381   -2.9088 C   0  0  0  0  0  0  0  0  0  0  0  0
    7.0828   -0.1102   -1.5369 O   0  0  0  0  0  0  0  0  0  0  0  0
    6.1234    0.0299   -0.5228 C   0  0  0  0  0  0  0  0  0  0  0  0
    6.5683    0.2507    0.7838 C   0  0  0  0  0  0  0  0  0  0  0  0
    5.6572    0.3969    1.8318 C   0  0  0  0  0  0  0  0  0  0  0  0
    4.2735    0.3233    1.5872 C   0  0  0  0  0  0  0  0  0  0  0  0
    3.3326    0.4609    2.6230 C   0  0  0  0  0  0  0  0  0  0  0  0
    3.7226    0.6670    3.8063 O   0  0  0  0  0  0  0  0  0  0  0  0
    1.9549    0.3665    2.3432 C   0  0  0  0  0  0  0  0  0  0  0  0
    0.9493    0.4804    3.4670 C   0  0  0  0  0  0  0  0  0  0  0  0
    1.5428    0.1874    0.9995 C   0  0  0  0  0  0  0  0  0  0  0  0
    0.1109    0.1465    0.6224 C   0  0  0  0  0  0  0  0  0  0  0  0
   -0.7266    1.2448    0.8719 C   0  0  0  0  0  0  0  0  0  0  0  0
   -2.0723    1.2050    0.4971 C   0  0  0  0  0  0  0  0  0  0  0  0
   -2.5980    0.0714   -0.1452 C   0  0  0  0  0  0  0  0  0  0  0  0
   -3.9847    0.0226   -0.5308 N   0  0  0  0  0  0  0  0  0  0  0  0
   -4.3463   -0.2260   -1.9326 C   0  0  0  0  0  0  0  0  0  0  0  0
   -5.5902   -1.1153   -2.0072 C   0  0  0  0  0  0  0  0  0  0  0  0
   -6.7254   -0.5338   -1.1575 C   0  0  0  0  0  0  0  0  0  0  0  0
   -6.2748   -0.3426    0.2949 C   0  0  0  0  0  0  0  0  0  0  0  0
   -5.0238    0.5386    0.3699 C   0  0  0  0  0  0  0  0  0  0  0  0
   -1.7547   -1.0202   -0.4060 C   0  0  0  0  0  0  0  0  0  0  0  0
   -0.4091   -0.9806   -0.0304 C   0  0  0  0  0  0  0  0  0  0  0  0
    2.4777    0.0414    0.0162 N   0  0  0  0  0  0  0  0  0  0  0  0
    3.8150    0.1024    0.2708 C   0  0  0  0  0  0  0  0  0  0  0  0
    4.7409   -0.0432   -0.7760 C   0  0  0  0  0  0  0  0  0  0  0  0
  1  2  1  0
  2  3  1  0
  3  4  4  0
  4  5  4  0
  5  6  4  0
  6  7  4  0
  7  8  2  0
  7  9  4  0
  9 10  1  0
  9 11  4  0
 11 12  1  0
 12 13  4  0
 13 14  4  0
 14 15  4  0
 15 16  1  0
 16 17  1  0
 17 18  1  0
 18 19  1  0
 19 20  1  0
 20 21  1  0
 15 22  4  0
 22 23  4  0
 11 24  4  0
 24 25  4  0
 25 26  4  0
 21 16  1  0
 23 12  4  0
 25  6  4  0
 26  3  4  0
M  END
>  <SMILES>  (4) 
COc4ccc3c(=O)c(C)c(c2ccc(N1CCCCC1)cc2)[nH]c3c4

>  <NumConformers>  (4) 
10

>  <EnergyUnits>  (4) 
RDKit_forcefield

>  <Total_Conformers>  (4) 
10

>  <Energy>  (4) 
65.071313305630298

>  <Energy_Unit>  (4) 
RDKit_forcefield

>  <Rank>  (4) 
4

>  <Conformer_Index>  (4) 
3

$$$$
RKA-310
     RDKit          3D

 26 29  0  0  0  0  0  0  0  0999 V2000
    6.6778   -1.0935   -2.7880 C   0  0  0  0  0  0  0  0  0  0  0  0
    7.0173   -0.5730   -1.5069 O   0  0  0  0  0  0  0  0  0  0  0  0
    6.0827   -0.2002   -0.5291 C   0  0  0  0  0  0  0  0  0  0  0  0
    6.5595    0.2972    0.6872 C   0  0  0  0  0  0  0  0  0  0  0  0
    5.6742    0.6828    1.6958 C   0  0  0  0  0  0  0  0  0  0  0  0
    4.2846    0.5755    1.5021 C   0  0  0  0  0  0  0  0  0  0  0  0
    3.3691    0.9505    2.5012 C   0  0  0  0  0  0  0  0  0  0  0  0
    3.7880    1.4071    3.6016 O   0  0  0  0  0  0  0  0  0  0  0  0
    1.9846    0.8150    2.2777 C   0  0  0  0  0  0  0  0  0  0  0  0
    1.0062    1.1873    3.3692 C   0  0  0  0  0  0  0  0  0  0  0  0
    1.5401    0.3495    1.0156 C   0  0  0  0  0  0  0  0  0  0  0  0
    0.0995    0.2455    0.6866 C   0  0  0  0  0  0  0  0  0  0  0  0
   -0.4450   -0.9907    0.3100 C   0  0  0  0  0  0  0  0  0  0  0  0
   -1.7994   -1.0942   -0.0193 C   0  0  0  0  0  0  0  0  0  0  0  0
   -2.6276    0.0388    0.0136 C   0  0  0  0  0  0  0  0  0  0  0  0
   -4.0215   -0.0746   -0.3301 N   0  0  0  0  0  0  0  0  0  0  0  0
   -4.6679    0.9515   -1.1588 C   0  0  0  0  0  0  0  0  0  0  0  0
   -5.6767    0.3039   -2.1128 C   0  0  0  0  0  0  0  0  0  0  0  0
   -6.6461   -0.6066   -1.3512 C   0  0  0  0  0  0  0  0  0  0  0  0
   -5.8818   -1.6690   -0.5538 C   0  0  0  0  0  0  0  0  0  0  0  0
   -4.8810   -1.0143    0.4019 C   0  0  0  0  0  0  0  0  0  0  0  0
   -2.0761    1.2802    0.3723 C   0  0  0  0  0  0  0  0  0  0  0  0
   -0.7220    1.3834    0.7023 C   0  0  0  0  0  0  0  0  0  0  0  0
    2.4507   -0.0219    0.0695 N   0  0  0  0  0  0  0  0  0  0  0  0
    3.7940    0.0760    0.2766 C   0  0  0  0  0  0  0  0  0  0  0  0
    4.6942   -0.3089   -0.7311 C   0  0  0  0  0  0  0  0  0  0  0  0
  1  2  1  0
  2  3  1  0
  3  4  4  0
  4  5  4  0
  5  6  4  0
  6  7  4  0
  7  8  2  0
  7  9  4  0
  9 10  1  0
  9 11  4  0
 11 12  1  0
 12 13  4  0
 13 14  4  0
 14 15  4  0
 15 16  1  0
 16 17  1  0
 17 18  1  0
 18 19  1  0
 19 20  1  0
 20 21  1  0
 15 22  4  0
 22 23  4  0
 11 24  4  0
 24 25  4  0
 25 26  4  0
 21 16  1  0
 23 12  4  0
 25  6  4  0
 26  3  4  0
M  END
>  <SMILES>  (5) 
COc4ccc3c(=O)c(C)c(c2ccc(N1CCCCC1)cc2)[nH]c3c4

>  <NumConformers>  (5) 
10

>  <EnergyUnits>  (5) 
RDKit_forcefield

>  <Total_Conformers>  (5) 
10

>  <Energy>  (5) 
65.079484756443492

>  <Energy_Unit>  (5) 
RDKit_forcefield

>  <Rank>  (5) 
5

>  <Conformer_Index>  (5) 
4

$$$$
RKA-310
     RDKit          3D

 26 29  0  0  0  0  0  0  0  0999 V2000
    6.6779   -1.1011   -2.7851 C   0  0  0  0  0  0  0  0  0  0  0  0
    7.0173   -0.6212   -1.4882 O   0  0  0  0  0  0  0  0  0  0  0  0
    6.0827   -0.2381   -0.5144 C   0  0  0  0  0  0  0  0  0  0  0  0
    6.5596    0.2153    0.7189 C   0  0  0  0  0  0  0  0  0  0  0  0
    5.6742    0.6097    1.7241 C   0  0  0  0  0  0  0  0  0  0  0  0
    4.2847    0.5570    1.5093 C   0  0  0  0  0  0  0  0  0  0  0  0
    3.3691    0.9529    2.5003 C   0  0  0  0  0  0  0  0  0  0  0  0
    3.7881    1.3581    3.6206 O   0  0  0  0  0  0  0  0  0  0  0  0
    1.9845    0.9008    2.2444 C   0  0  0  0  0  0  0  0  0  0  0  0
    1.0061    1.3608    3.3019 C   0  0  0  0  0  0  0  0  0  0  0  0
    1.5400    0.3930    0.9987 C   0  0  0  0  0  0  0  0  0  0  0  0
    0.0995    0.2465    0.6862 C   0  0  0  0  0  0  0  0  0  0  0  0
   -0.4461    0.9049   -0.4253 C   0  0  0  0  0  0  0  0  0  0  0  0
   -1.8004    0.7579   -0.7377 C   0  0  0  0  0  0  0  0  0  0  0  0
   -2.6275   -0.0574    0.0509 C   0  0  0  0  0  0  0  0  0  0  0  0
   -4.0214   -0.2069   -0.2788 N   0  0  0  0  0  0  0  0  0  0  0  0
   -4.8822    0.9798   -0.3716 C   0  0  0  0  0  0  0  0  0  0  0  0
   -5.8832    0.8178   -1.5184 C   0  0  0  0  0  0  0  0  0  0  0  0
   -6.6462   -0.5052   -1.3905 C   0  0  0  0  0  0  0  0  0  0  0  0
   -5.6755   -1.6901   -1.3393 C   0  0  0  0  0  0  0  0  0  0  0  0
   -4.6665   -1.5241   -0.1985 C   0  0  0  0  0  0  0  0  0  0  0  0
   -2.0749   -0.7317    1.1527 C   0  0  0  0  0  0  0  0  0  0  0  0
   -0.7209   -0.5840    1.4654 C   0  0  0  0  0  0  0  0  0  0  0  0
    2.4507    0.0302    0.0493 N   0  0  0  0  0  0  0  0  0  0  0  0
    3.7940    0.0989    0.2678 C   0  0  0  0  0  0  0  0  0  0  0  0
    4.6942   -0.2954   -0.7364 C   0  0  0  0  0  0  0  0  0  0  0  0
  1  2  1  0
  2  3  1  0
  3  4  4  0
  4  5  4  0
  5  6  4  0
  6  7  4  0
  7  8  2  0
  7  9  4  0
  9 10  1  0
  9 11  4  0
 11 12  1  0
 12 13  4  0
 13 14  4  0
 14 15  4  0
 15 16  1  0
 16 17  1  0
 17 18  1  0
 18 19  1  0
 19 20  1  0
 20 21  1  0
 15 22  4  0
 22 23  4  0
 11 24  4  0
 24 25  4  0
 25 26  4  0
 21 16  1  0
 23 12  4  0
 25  6  4  0
 26  3  4  0
M  END
>  <SMILES>  (6) 
COc4ccc3c(=O)c(C)c(c2ccc(N1CCCCC1)cc2)[nH]c3c4

>  <NumConformers>  (6) 
10

>  <EnergyUnits>  (6) 
RDKit_forcefield

>  <Total_Conformers>  (6) 
10

>  <Energy>  (6) 
65.079484764170559

>  <Energy_Unit>  (6) 
RDKit_forcefield

>  <Rank>  (6) 
6

>  <Conformer_Index>  (6) 
5

$$$$
RKA-310
     RDKit          3D

 26 29  0  0  0  0  0  0  0  0999 V2000
    8.2293   -0.7842   -1.7628 C   0  0  0  0  0  0  0  0  0  0  0  0
    6.8082   -0.7598   -1.8488 O   0  0  0  0  0  0  0  0  0  0  0  0
    5.9578   -0.3658   -0.8049 C   0  0  0  0  0  0  0  0  0  0  0  0
    6.4442    0.0491    0.4478 C   0  0  0  0  0  0  0  0  0  0  0  0
    5.5589    0.4331    1.4578 C   0  0  0  0  0  0  0  0  0  0  0  0
    4.1696    0.4104    1.2348 C   0  0  0  0  0  0  0  0  0  0  0  0
    3.2555    0.7967    2.2308 C   0  0  0  0  0  0  0  0  0  0  0  0
    3.6749    1.1657    3.3634 O   0  0  0  0  0  0  0  0  0  0  0  0
    1.8716    0.7754    1.9663 C   0  0  0  0  0  0  0  0  0  0  0  0
    0.8952    1.2253    3.0300 C   0  0  0  0  0  0  0  0  0  0  0  0
    1.4255    0.3075    0.7055 C   0  0  0  0  0  0  0  0  0  0  0  0
   -0.0155    0.1942    0.3816 C   0  0  0  0  0  0  0  0  0  0  0  0
   -0.8548   -0.6412    1.1350 C   0  0  0  0  0  0  0  0  0  0  0  0
   -2.2094   -0.7566    0.8115 C   0  0  0  0  0  0  0  0  0  0  0  0
   -2.7432   -0.0483   -0.2767 C   0  0  0  0  0  0  0  0  0  0  0  0
   -4.1408   -0.1683   -0.6023 N   0  0  0  0  0  0  0  0  0  0  0  0
   -4.9176    1.0176   -0.9868 C   0  0  0  0  0  0  0  0  0  0  0  0
   -6.3358    0.9301   -0.4141 C   0  0  0  0  0  0  0  0  0  0  0  0
   -6.9916   -0.4076   -0.7738 C   0  0  0  0  0  0  0  0  0  0  0  0
   -6.1308   -1.5817   -0.2949 C   0  0  0  0  0  0  0  0  0  0  0  0
   -4.7176   -1.4910   -0.8766 C   0  0  0  0  0  0  0  0  0  0  0  0
   -1.8984    0.7773   -1.0374 C   0  0  0  0  0  0  0  0  0  0  0  0
   -0.5435    0.8920   -0.7142 C   0  0  0  0  0  0  0  0  0  0  0  0
    2.3352   -0.0466   -0.2480 N   0  0  0  0  0  0  0  0  0  0  0  0
    3.6780   -0.0069   -0.0203 C   0  0  0  0  0  0  0  0  0  0  0  0
    4.5772   -0.3908   -1.0284 C   0  0  0  0  0  0  0  0  0  0  0  0
  1  2  1  0
  2  3  1  0
  3  4  4  0
  4  5  4  0
  5  6  4  0
  6  7  4  0
  7  8  2  0
  7  9  4  0
  9 10  1  0
  9 11  4  0
 11 12  1  0
 12 13  4  0
 13 14  4  0
 14 15  4  0
 15 16  1  0
 16 17  1  0
 17 18  1  0
 18 19  1  0
 19 20  1  0
 20 21  1  0
 15 22  4  0
 22 23  4  0
 11 24  4  0
 24 25  4  0
 25 26  4  0
 21 16  1  0
 23 12  4  0
 25  6  4  0
 26  3  4  0
M  END
>  <SMILES>  (7) 
COc4ccc3c(=O)c(C)c(c2ccc(N1CCCCC1)cc2)[nH]c3c4

>  <NumConformers>  (7) 
10

>  <EnergyUnits>  (7) 
RDKit_forcefield

>  <Total_Conformers>  (7) 
10

>  <Energy>  (7) 
65.083997375345007

>  <Energy_Unit>  (7) 
RDKit_forcefield

>  <Rank>  (7) 
7

>  <Conformer_Index>  (7) 
6

$$$$
RKA-310
     RDKit          3D

 26 29  0  0  0  0  0  0  0  0999 V2000
    8.2296   -0.6452   -1.8155 C   0  0  0  0  0  0  0  0  0  0  0  0
    6.8083   -0.7158   -1.8655 O   0  0  0  0  0  0  0  0  0  0  0  0
    5.9579   -0.3149   -0.8242 C   0  0  0  0  0  0  0  0  0  0  0  0
    6.4445    0.2044    0.3888 C   0  0  0  0  0  0  0  0  0  0  0  0
    5.5592    0.5904    1.3980 C   0  0  0  0  0  0  0  0  0  0  0  0
    4.1697    0.4640    1.2144 C   0  0  0  0  0  0  0  0  0  0  0  0
    3.2556    0.8391    2.2148 C   0  0  0  0  0  0  0  0  0  0  0  0
    3.6752    1.3133    3.3074 O   0  0  0  0  0  0  0  0  0  0  0  0
    1.8714    0.6840    2.0010 C   0  0  0  0  0  0  0  0  0  0  0  0
    0.8949    1.0566    3.0941 C   0  0  0  0  0  0  0  0  0  0  0  0
    1.4253    0.1988    0.7468 C   0  0  0  0  0  0  0  0  0  0  0  0
   -0.0157    0.0733    0.4276 C   0  0  0  0  0  0  0  0  0  0  0  0
   -0.5474   -1.1742    0.0703 C   0  0  0  0  0  0  0  0  0  0  0  0
   -1.9024   -1.2985   -0.2493 C   0  0  0  0  0  0  0  0  0  0  0  0
   -2.7434   -0.1732   -0.2293 C   0  0  0  0  0  0  0  0  0  0  0  0
   -4.1411   -0.2950   -0.5542 N   0  0  0  0  0  0  0  0  0  0  0  0
   -4.9222   -1.4346   -0.0558 C   0  0  0  0  0  0  0  0  0  0  0  0
   -6.3394   -0.9845    0.3128 C   0  0  0  0  0  0  0  0  0  0  0  0
   -6.9913   -0.2204   -0.8449 C   0  0  0  0  0  0  0  0  0  0  0  0
   -6.1260    0.9729   -1.2648 C   0  0  0  0  0  0  0  0  0  0  0  0
   -4.7138    0.5144   -1.6380 C   0  0  0  0  0  0  0  0  0  0  0  0
   -2.2059    1.0770    0.1153 C   0  0  0  0  0  0  0  0  0  0  0  0
   -0.8513    1.2009    0.4356 C   0  0  0  0  0  0  0  0  0  0  0  0
    2.3350   -0.1722   -0.2003 N   0  0  0  0  0  0  0  0  0  0  0  0
    3.6779   -0.0552   -0.0020 C   0  0  0  0  0  0  0  0  0  0  0  0
    4.5771   -0.4400   -1.0097 C   0  0  0  0  0  0  0  0  0  0  0  0
  1  2  1  0
  2  3  1  0
  3  4  4  0
  4  5  4  0
  5  6  4  0
  6  7  4  0
  7  8  2  0
  7  9  4  0
  9 10  1  0
  9 11  4  0
 11 12  1  0
 12 13  4  0
 13 14  4  0
 14 15  4  0
 15 16  1  0
 16 17  1  0
 17 18  1  0
 18 19  1  0
 19 20  1  0
 20 21  1  0
 15 22  4  0
 22 23  4  0
 11 24  4  0
 24 25  4  0
 25 26  4  0
 21 16  1  0
 23 12  4  0
 25  6  4  0
 26  3  4  0
M  END
>  <SMILES>  (8) 
COc4ccc3c(=O)c(C)c(c2ccc(N1CCCCC1)cc2)[nH]c3c4

>  <NumConformers>  (8) 
10

>  <EnergyUnits>  (8) 
RDKit_forcefield

>  <Total_Conformers>  (8) 
10

>  <Energy>  (8) 
65.083997377719697

>  <Energy_Unit>  (8) 
RDKit_forcefield

>  <Rank>  (8) 
8

>  <Conformer_Index>  (8) 
7

$$$$
RKA-310
     RDKit          3D

 26 29  0  0  0  0  0  0  0  0999 V2000
    8.1836   -0.1990   -2.0312 C   0  0  0  0  0  0  0  0  0  0  0  0
    6.7611   -0.2547   -2.0593 O   0  0  0  0  0  0  0  0  0  0  0  0
    5.9389   -0.0837   -0.9355 C   0  0  0  0  0  0  0  0  0  0  0  0
    6.4584    0.1640    0.3478 C   0  0  0  0  0  0  0  0  0  0  0  0
    5.6005    0.3273    1.4380 C   0  0  0  0  0  0  0  0  0  0  0  0
    4.2061    0.2456    1.2666 C   0  0  0  0  0  0  0  0  0  0  0  0
    3.3191    0.4003    2.3465 C   0  0  0  0  0  0  0  0  0  0  0  0
    3.7684    0.6296    3.5042 O   0  0  0  0  0  0  0  0  0  0  0  0
    1.9291    0.2970    2.1394 C   0  0  0  0  0  0  0  0  0  0  0  0
    0.9819    0.4295    3.3109 C   0  0  0  0  0  0  0  0  0  0  0  0
    1.4493    0.0914    0.8222 C   0  0  0  0  0  0  0  0  0  0  0  0
    0.0001    0.0397    0.5197 C   0  0  0  0  0  0  0  0  0  0  0  0
   -0.8270    1.1396    0.7908 C   0  0  0  0  0  0  0  0  0  0  0  0
   -2.1899    1.0901    0.4865 C   0  0  0  0  0  0  0  0  0  0  0  0
   -2.7496   -0.0569   -0.1057 C   0  0  0  0  0  0  0  0  0  0  0  0
   -4.1591   -0.1088   -0.4201 N   0  0  0  0  0  0  0  0  0  0  0  0
   -4.6239   -0.8293   -1.6171 C   0  0  0  0  0  0  0  0  0  0  0  0
   -5.9363   -0.2313   -2.1335 C   0  0  0  0  0  0  0  0  0  0  0  0
   -7.0374   -0.2224   -1.0569 C   0  0  0  0  0  0  0  0  0  0  0  0
   -6.4959   -0.1430    0.3826 C   0  0  0  0  0  0  0  0  0  0  0  0
   -5.1368    0.5598    0.4545 C   0  0  0  0  0  0  0  0  0  0  0  0
   -1.9111   -1.1502   -0.3907 C   0  0  0  0  0  0  0  0  0  0  0  0
   -0.5484   -1.0995   -0.0850 C   0  0  0  0  0  0  0  0  0  0  0  0
    2.3333   -0.0706   -0.2048 N   0  0  0  0  0  0  0  0  0  0  0  0
    3.6814   -0.0011   -0.0198 C   0  0  0  0  0  0  0  0  0  0  0  0
    4.5532   -0.1637   -1.1087 C   0  0  0  0  0  0  0  0  0  0  0  0
  1  2  1  0
  2  3  1  0
  3  4  4  0
  4  5  4  0
  5  6  4  0
  6  7  4  0
  7  8  2  0
  7  9  4  0
  9 10  1  0
  9 11  4  0
 11 12  1  0
 12 13  4  0
 13 14  4  0
 14 15  4  0
 15 16  1  0
 16 17  1  0
 17 18  1  0
 18 19  1  0
 19 20  1  0
 20 21  1  0
 15 22  4  0
 22 23  4  0
 11 24  4  0
 24 25  4  0
 25 26  4  0
 21 16  1  0
 23 12  4  0
 25  6  4  0
 26  3  4  0
M  END
>  <SMILES>  (9) 
COc4ccc3c(=O)c(C)c(c2ccc(N1CCCCC1)cc2)[nH]c3c4

>  <NumConformers>  (9) 
10

>  <EnergyUnits>  (9) 
RDKit_forcefield

>  <Total_Conformers>  (9) 
10

>  <Energy>  (9) 
69.679610099120595

>  <Energy_Unit>  (9) 
RDKit_forcefield

>  <Rank>  (9) 
9

>  <Conformer_Index>  (9) 
8

$$$$
RKA-310
     RDKit          3D

 26 29  0  0  0  0  0  0  0  0999 V2000
    8.1799    0.0715   -2.0542 C   0  0  0  0  0  0  0  0  0  0  0  0
    6.7564    0.0820   -2.0880 O   0  0  0  0  0  0  0  0  0  0  0  0
    5.9366    0.0807   -0.9495 C   0  0  0  0  0  0  0  0  0  0  0  0
    6.4598    0.0681    0.3559 C   0  0  0  0  0  0  0  0  0  0  0  0
    5.6041    0.0676    1.4601 C   0  0  0  0  0  0  0  0  0  0  0  0
    4.2084    0.0804    1.2807 C   0  0  0  0  0  0  0  0  0  0  0  0
    3.3235    0.0859    2.3733 C   0  0  0  0  0  0  0  0  0  0  0  0
    3.7762    0.0682    3.5520 O   0  0  0  0  0  0  0  0  0  0  0  0
    1.9317    0.1140    2.1550 C   0  0  0  0  0  0  0  0  0  0  0  0
    0.9858    0.1551    3.3343 C   0  0  0  0  0  0  0  0  0  0  0  0
    1.4495    0.0804    0.8231 C   0  0  0  0  0  0  0  0  0  0  0  0
    0.0001    0.0399    0.5197 C   0  0  0  0  0  0  0  0  0  0  0  0
   -0.5785    1.0447   -0.2676 C   0  0  0  0  0  0  0  0  0  0  0  0
   -1.9414    1.0051   -0.5743 C   0  0  0  0  0  0  0  0  0  0  0  0
   -2.7498   -0.0472   -0.1065 C   0  0  0  0  0  0  0  0  0  0  0  0
   -4.1594   -0.0884   -0.4218 N   0  0  0  0  0  0  0  0  0  0  0  0
   -5.1202   -0.6265    0.5555 C   0  0  0  0  0  0  0  0  0  0  0  0
   -6.4981    0.0160    0.3691 C   0  0  0  0  0  0  0  0  0  0  0  0
   -7.0382   -0.1643   -1.0619 C   0  0  0  0  0  0  0  0  0  0  0  0
   -5.9352   -0.3069   -2.1270 C   0  0  0  0  0  0  0  0  0  0  0  0
   -4.6412    0.4060   -1.7223 C   0  0  0  0  0  0  0  0  0  0  0  0
   -2.1598   -1.0615    0.6698 C   0  0  0  0  0  0  0  0  0  0  0  0
   -0.7967   -1.0209    0.9748 C   0  0  0  0  0  0  0  0  0  0  0  0
    2.3310    0.0910   -0.2186 N   0  0  0  0  0  0  0  0  0  0  0  0
    3.6801    0.0913   -0.0277 C   0  0  0  0  0  0  0  0  0  0  0  0
    4.5497    0.0917   -1.1305 C   0  0  0  0  0  0  0  0  0  0  0  0
  1  2  1  0
  2  3  1  0
  3  4  4  0
  4  5  4  0
  5  6  4  0
  6  7  4  0
  7  8  2  0
  7  9  4  0
  9 10  1  0
  9 11  4  0
 11 12  1  0
 12 13  4  0
 13 14  4  0
 14 15  4  0
 15 16  1  0
 16 17  1  0
 17 18  1  0
 18 19  1  0
 19 20  1  0
 20 21  1  0
 15 22  4  0
 22 23  4  0
 11 24  4  0
 24 25  4  0
 25 26  4  0
 21 16  1  0
 23 12  4  0
 25  6  4  0
 26  3  4  0
M  END
>  <SMILES>  (10) 
COc4ccc3c(=O)c(C)c(c2ccc(N1CCCCC1)cc2)[nH]c3c4

>  <NumConformers>  (10) 
10

>  <EnergyUnits>  (10) 
RDKit_forcefield

>  <Total_Conformers>  (10) 
10

>  <Energy>  (10) 
69.679610101235781

>  <Energy_Unit>  (10) 
RDKit_forcefield

>  <Rank>  (10) 
10

>  <Conformer_Index>  (10) 
9

$$$$
