SL-2-25
     RDKit          3D

 29 32  0  0  0  0  0  0  0  0999 V2000
   -2.4208   -1.2536   -2.6588 C   0  0  0  0  0  0  0  0  0  0  0  0
   -3.1295   -0.7807   -1.4092 C   0  0  0  0  0  0  0  0  0  0  0  0
   -2.4098   -0.2648   -0.3028 C   0  0  0  0  0  0  0  0  0  0  0  0
   -0.9295   -0.2049   -0.2951 C   0  0  0  0  0  0  0  0  0  0  0  0
   -0.1597   -1.3679   -0.4256 C   0  0  0  0  0  0  0  0  0  0  0  0
    1.2337   -1.2933   -0.3947 C   0  0  0  0  0  0  0  0  0  0  0  0
    1.8593   -0.0453   -0.2259 C   0  0  0  0  0  0  0  0  0  0  0  0
    3.3383    0.0877   -0.1824 C   0  0  0  0  0  0  0  0  0  0  0  0
    4.1761   -0.8021   -0.8805 C   0  0  0  0  0  0  0  0  0  0  0  0
    5.5651   -0.6542   -0.8326 C   0  0  0  0  0  0  0  0  0  0  0  0
    6.1481    0.3824   -0.0967 C   0  0  0  0  0  0  0  0  0  0  0  0
    7.5490    0.4804   -0.0841 O   0  0  0  0  0  0  0  0  0  0  0  0
    8.2993    1.4735    0.6117 C   0  0  0  0  0  0  0  0  0  0  0  0
    8.0485    1.3961    1.9699 F   0  0  0  0  0  0  0  0  0  0  0  0
    9.6454    1.2522    0.3942 F   0  0  0  0  0  0  0  0  0  0  0  0
    7.9731    2.7333    0.1425 F   0  0  0  0  0  0  0  0  0  0  0  0
    5.3154    1.2817    0.5947 C   0  0  0  0  0  0  0  0  0  0  0  0
    3.9258    1.1363    0.5473 C   0  0  0  0  0  0  0  0  0  0  0  0
    1.0849    1.0663   -0.0751 N   0  0  0  0  0  0  0  0  0  0  0  0
   -0.2731    1.0167   -0.1015 C   0  0  0  0  0  0  0  0  0  0  0  0
   -3.0840    0.1973    0.7901 N   0  0  0  0  0  0  0  0  0  0  0  0
   -4.4423    0.1449    0.8802 C   0  0  0  0  0  0  0  0  0  0  0  0
   -5.0941    0.6227    2.0294 C   0  0  0  0  0  0  0  0  0  0  0  0
   -6.4857    0.5595    2.1283 C   0  0  0  0  0  0  0  0  0  0  0  0
   -7.2385    0.0189    1.0846 C   0  0  0  0  0  0  0  0  0  0  0  0
   -6.6042   -0.4603   -0.0644 C   0  0  0  0  0  0  0  0  0  0  0  0
   -5.2011   -0.4013   -0.1789 C   0  0  0  0  0  0  0  0  0  0  0  0
   -4.5333   -0.8698   -1.3239 C   0  0  0  0  0  0  0  0  0  0  0  0
   -5.1924   -1.3689   -2.2785 O   0  0  0  0  0  0  0  0  0  0  0  0
  1  2  1  0
  2  3  4  0
  3  4  1  0
  4  5  4  0
  5  6  4  0
  6  7  4  0
  7  8  1  0
  8  9  4  0
  9 10  4  0
 10 11  4  0
 11 12  1  0
 12 13  1  0
 13 14  1  0
 13 15  1  0
 13 16  1  0
 11 17  4  0
 17 18  4  0
  7 19  4  0
 19 20  4  0
  3 21  4  0
 21 22  4  0
 22 23  4  0
 23 24  4  0
 24 25  4  0
 25 26  4  0
 26 27  4  0
 27 28  4  0
 28 29  2  0
 18  8  4  0
 20  4  4  0
 27 22  4  0
 28  2  4  0
M  END
>  <SMILES>  (1) 
Cc4c(c2ccc(c1ccc(OC(F)(F)F)cc1)nc2)[nH]c3ccccc3c4=O

>  <NumConformers>  (1) 
12

>  <EnergyUnits>  (1) 
RDKit_forcefield

>  <Total_Conformers>  (1) 
12

>  <Energy>  (1) 
66.974998530393563

>  <Energy_Unit>  (1) 
RDKit_forcefield

>  <Rank>  (1) 
1

>  <Conformer_Index>  (1) 
0

$$$$
SL-2-25
     RDKit          3D

 29 32  0  0  0  0  0  0  0  0999 V2000
   -2.3176   -2.4198   -1.7710 C   0  0  0  0  0  0  0  0  0  0  0  0
   -3.0726   -1.4233   -0.9200 C   0  0  0  0  0  0  0  0  0  0  0  0
   -2.3964   -0.4159   -0.1877 C   0  0  0  0  0  0  0  0  0  0  0  0
   -0.9247   -0.2591   -0.2538 C   0  0  0  0  0  0  0  0  0  0  0  0
   -0.2811    0.0040   -1.4699 C   0  0  0  0  0  0  0  0  0  0  0  0
    1.1042    0.1697   -1.5083 C   0  0  0  0  0  0  0  0  0  0  0  0
    1.8484    0.0769   -0.3188 C   0  0  0  0  0  0  0  0  0  0  0  0
    3.3240    0.2489   -0.3051 C   0  0  0  0  0  0  0  0  0  0  0  0
    4.1136   -0.0959   -1.4181 C   0  0  0  0  0  0  0  0  0  0  0  0
    5.5013    0.0665   -1.3812 C   0  0  0  0  0  0  0  0  0  0  0  0
    6.1317    0.5678   -0.2379 C   0  0  0  0  0  0  0  0  0  0  0  0
    7.5286    0.7107   -0.2595 O   0  0  0  0  0  0  0  0  0  0  0  0
    8.3232    1.2035    0.8172 C   0  0  0  0  0  0  0  0  0  0  0  0
    8.1806    0.3896    1.9266 F   0  0  0  0  0  0  0  0  0  0  0  0
    9.6498    1.2026    0.4320 F   0  0  0  0  0  0  0  0  0  0  0  0
    7.9509    2.4985    1.1308 F   0  0  0  0  0  0  0  0  0  0  0  0
    5.3488    0.9043    0.8819 C   0  0  0  0  0  0  0  0  0  0  0  0
    3.9608    0.7417    0.8477 C   0  0  0  0  0  0  0  0  0  0  0  0
    1.1929   -0.1539    0.8537 N   0  0  0  0  0  0  0  0  0  0  0  0
   -0.1549   -0.3178    0.9143 C   0  0  0  0  0  0  0  0  0  0  0  0
   -3.1053    0.4370    0.6077 N   0  0  0  0  0  0  0  0  0  0  0  0
   -4.4636    0.3855    0.6971 C   0  0  0  0  0  0  0  0  0  0  0  0
   -5.1532    1.2909    1.5208 C   0  0  0  0  0  0  0  0  0  0  0  0
   -6.5466    1.2469    1.6050 C   0  0  0  0  0  0  0  0  0  0  0  0
   -7.2636    0.3025    0.8688 C   0  0  0  0  0  0  0  0  0  0  0  0
   -6.5914   -0.6043    0.0452 C   0  0  0  0  0  0  0  0  0  0  0  0
   -5.1859   -0.5729   -0.0482 C   0  0  0  0  0  0  0  0  0  0  0  0
   -4.4797   -1.4748   -0.8633 C   0  0  0  0  0  0  0  0  0  0  0  0
   -5.1069   -2.3342   -1.5436 O   0  0  0  0  0  0  0  0  0  0  0  0
  1  2  1  0
  2  3  4  0
  3  4  1  0
  4  5  4  0
  5  6  4  0
  6  7  4  0
  7  8  1  0
  8  9  4  0
  9 10  4  0
 10 11  4  0
 11 12  1  0
 12 13  1  0
 13 14  1  0
 13 15  1  0
 13 16  1  0
 11 17  4  0
 17 18  4  0
  7 19  4  0
 19 20  4  0
  3 21  4  0
 21 22  4  0
 22 23  4  0
 23 24  4  0
 24 25  4  0
 25 26  4  0
 26 27  4  0
 27 28  4  0
 28 29  2  0
 18  8  4  0
 20  4  4  0
 27 22  4  0
 28  2  4  0
M  END
>  <SMILES>  (2) 
Cc4c(c2ccc(c1ccc(OC(F)(F)F)cc1)nc2)[nH]c3ccccc3c4=O

>  <NumConformers>  (2) 
12

>  <EnergyUnits>  (2) 
RDKit_forcefield

>  <Total_Conformers>  (2) 
12

>  <Energy>  (2) 
66.974998530410986

>  <Energy_Unit>  (2) 
RDKit_forcefield

>  <Rank>  (2) 
2

>  <Conformer_Index>  (2) 
1

$$$$
SL-2-25
     RDKit          3D

 29 32  0  0  0  0  0  0  0  0999 V2000
   -2.2558   -1.3971   -2.5305 C   0  0  0  0  0  0  0  0  0  0  0  0
   -3.0514   -0.8791   -1.3532 C   0  0  0  0  0  0  0  0  0  0  0  0
   -2.4188   -0.2362   -0.2602 C   0  0  0  0  0  0  0  0  0  0  0  0
   -0.9471   -0.0798   -0.1932 C   0  0  0  0  0  0  0  0  0  0  0  0
   -0.1019   -1.1969   -0.1995 C   0  0  0  0  0  0  0  0  0  0  0  0
    1.2811   -1.0298   -0.1143 C   0  0  0  0  0  0  0  0  0  0  0  0
    1.8200    0.2653   -0.0161 C   0  0  0  0  0  0  0  0  0  0  0  0
    3.2843    0.4969    0.0808 C   0  0  0  0  0  0  0  0  0  0  0  0
    4.2079   -0.3861   -0.5099 C   0  0  0  0  0  0  0  0  0  0  0  0
    5.5822   -0.1470   -0.4147 C   0  0  0  0  0  0  0  0  0  0  0  0
    6.0618    0.9856    0.2691 C   0  0  0  0  0  0  0  0  0  0  0  0
    7.4304    1.2734    0.3969 O   0  0  0  0  0  0  0  0  0  0  0  0
    8.4919    0.4809   -0.1307 C   0  0  0  0  0  0  0  0  0  0  0  0
    8.3904    0.4041   -1.5082 F   0  0  0  0  0  0  0  0  0  0  0  0
    9.6971    1.0724    0.1945 F   0  0  0  0  0  0  0  0  0  0  0  0
    8.4565   -0.7891    0.4167 F   0  0  0  0  0  0  0  0  0  0  0  0
    5.1444    1.8690    0.8468 C   0  0  0  0  0  0  0  0  0  0  0  0
    3.7704    1.6326    0.7519 C   0  0  0  0  0  0  0  0  0  0  0  0
    0.9725    1.3323    0.0142 N   0  0  0  0  0  0  0  0  0  0  0  0
   -0.3770    1.1928   -0.0670 C   0  0  0  0  0  0  0  0  0  0  0  0
   -3.1720    0.2617    0.7633 N   0  0  0  0  0  0  0  0  0  0  0  0
   -4.5272    0.1281    0.7984 C   0  0  0  0  0  0  0  0  0  0  0  0
   -5.2616    0.6472    1.8777 C   0  0  0  0  0  0  0  0  0  0  0  0
   -6.6499    0.5013    1.9209 C   0  0  0  0  0  0  0  0  0  0  0  0
   -7.3169   -0.1636    0.8908 C   0  0  0  0  0  0  0  0  0  0  0  0
   -6.5999   -0.6853   -0.1889 C   0  0  0  0  0  0  0  0  0  0  0  0
   -5.1992   -0.5440   -0.2468 C   0  0  0  0  0  0  0  0  0  0  0  0
   -4.4496   -1.0525   -1.3220 C   0  0  0  0  0  0  0  0  0  0  0  0
   -5.0301   -1.6634   -2.2625 O   0  0  0  0  0  0  0  0  0  0  0  0
  1  2  1  0
  2  3  4  0
  3  4  1  0
  4  5  4  0
  5  6  4  0
  6  7  4  0
  7  8  1  0
  8  9  4  0
  9 10  4  0
 10 11  4  0
 11 12  1  0
 12 13  1  0
 13 14  1  0
 13 15  1  0
 13 16  1  0
 11 17  4  0
 17 18  4  0
  7 19  4  0
 19 20  4  0
  3 21  4  0
 21 22  4  0
 22 23  4  0
 23 24  4  0
 24 25  4  0
 25 26  4  0
 26 27  4  0
 27 28  4  0
 28 29  2  0
 18  8  4  0
 20  4  4  0
 27 22  4  0
 28  2  4  0
M  END
>  <SMILES>  (3) 
Cc4c(c2ccc(c1ccc(OC(F)(F)F)cc1)nc2)[nH]c3ccccc3c4=O

>  <NumConformers>  (3) 
12

>  <EnergyUnits>  (3) 
RDKit_forcefield

>  <Total_Conformers>  (3) 
12

>  <Energy>  (3) 
66.975229835050399

>  <Energy_Unit>  (3) 
RDKit_forcefield

>  <Rank>  (3) 
3

>  <Conformer_Index>  (3) 
2

$$$$
SL-2-25
     RDKit          3D

 29 32  0  0  0  0  0  0  0  0999 V2000
   -2.1609   -2.4587   -1.6080 C   0  0  0  0  0  0  0  0  0  0  0  0
   -3.0005   -1.4486   -0.8584 C   0  0  0  0  0  0  0  0  0  0  0  0
   -2.4047   -0.3935   -0.1235 C   0  0  0  0  0  0  0  0  0  0  0  0
   -0.9365   -0.1993   -0.0894 C   0  0  0  0  0  0  0  0  0  0  0  0
   -0.2115    0.0304   -1.2658 C   0  0  0  0  0  0  0  0  0  0  0  0
    1.1684    0.2321   -1.2108 C   0  0  0  0  0  0  0  0  0  0  0  0
    1.8250    0.2093    0.0325 C   0  0  0  0  0  0  0  0  0  0  0  0
    3.2910    0.4221    0.1457 C   0  0  0  0  0  0  0  0  0  0  0  0
    3.8287    0.9803    1.3188 C   0  0  0  0  0  0  0  0  0  0  0  0
    5.2059    1.1813    1.4443 C   0  0  0  0  0  0  0  0  0  0  0  0
    6.0763    0.8236    0.4099 C   0  0  0  0  0  0  0  0  0  0  0  0
    7.4504    1.0496    0.5914 O   0  0  0  0  0  0  0  0  0  0  0  0
    8.4684    0.7436   -0.3590 C   0  0  0  0  0  0  0  0  0  0  0  0
    9.6941    1.1068    0.1646 F   0  0  0  0  0  0  0  0  0  0  0  0
    8.4813   -0.6142   -0.6235 F   0  0  0  0  0  0  0  0  0  0  0  0
    8.2564    1.4504   -1.5292 F   0  0  0  0  0  0  0  0  0  0  0  0
    5.5465    0.2532   -0.7624 C   0  0  0  0  0  0  0  0  0  0  0  0
    4.1687    0.0523   -0.8907 C   0  0  0  0  0  0  0  0  0  0  0  0
    1.0906    0.0099    1.1633 N   0  0  0  0  0  0  0  0  0  0  0  0
   -0.2536   -0.1882    1.1330 C   0  0  0  0  0  0  0  0  0  0  0  0
   -3.1908    0.4722    0.5804 N   0  0  0  0  0  0  0  0  0  0  0  0
   -4.5504    0.3874    0.5731 C   0  0  0  0  0  0  0  0  0  0  0  0
   -5.3205    1.3070    1.3043 C   0  0  0  0  0  0  0  0  0  0  0  0
   -6.7148    1.2286    1.2890 C   0  0  0  0  0  0  0  0  0  0  0  0
   -7.3526    0.2350    0.5445 C   0  0  0  0  0  0  0  0  0  0  0  0
   -6.5997   -0.6866   -0.1878 C   0  0  0  0  0  0  0  0  0  0  0  0
   -5.1923   -0.6207   -0.1802 C   0  0  0  0  0  0  0  0  0  0  0  0
   -4.4064   -1.5362   -0.9017 C   0  0  0  0  0  0  0  0  0  0  0  0
   -4.9607   -2.4400   -1.5877 O   0  0  0  0  0  0  0  0  0  0  0  0
  1  2  1  0
  2  3  4  0
  3  4  1  0
  4  5  4  0
  5  6  4  0
  6  7  4  0
  7  8  1  0
  8  9  4  0
  9 10  4  0
 10 11  4  0
 11 12  1  0
 12 13  1  0
 13 14  1  0
 13 15  1  0
 13 16  1  0
 11 17  4  0
 17 18  4  0
  7 19  4  0
 19 20  4  0
  3 21  4  0
 21 22  4  0
 22 23  4  0
 23 24  4  0
 24 25  4  0
 25 26  4  0
 26 27  4  0
 27 28  4  0
 28 29  2  0
 18  8  4  0
 20  4  4  0
 27 22  4  0
 28  2  4  0
M  END
>  <SMILES>  (4) 
Cc4c(c2ccc(c1ccc(OC(F)(F)F)cc1)nc2)[nH]c3ccccc3c4=O

>  <NumConformers>  (4) 
12

>  <EnergyUnits>  (4) 
RDKit_forcefield

>  <Total_Conformers>  (4) 
12

>  <Energy>  (4) 
66.975229855709173

>  <Energy_Unit>  (4) 
RDKit_forcefield

>  <Rank>  (4) 
4

>  <Conformer_Index>  (4) 
3

$$$$
SL-2-25
     RDKit          3D

 29 32  0  0  0  0  0  0  0  0999 V2000
   -2.1409   -2.8409   -0.8844 C   0  0  0  0  0  0  0  0  0  0  0  0
   -2.9806   -1.6653   -0.4374 C   0  0  0  0  0  0  0  0  0  0  0  0
   -2.3957   -0.4062   -0.1527 C   0  0  0  0  0  0  0  0  0  0  0  0
   -0.9324   -0.1902   -0.2344 C   0  0  0  0  0  0  0  0  0  0  0  0
   -0.4108    0.7998   -1.0754 C   0  0  0  0  0  0  0  0  0  0  0  0
    0.9670    1.0153   -1.1345 C   0  0  0  0  0  0  0  0  0  0  0  0
    1.8270    0.2367   -0.3398 C   0  0  0  0  0  0  0  0  0  0  0  0
    3.3000    0.4286   -0.3632 C   0  0  0  0  0  0  0  0  0  0  0  0
    4.0637    0.1264    0.7782 C   0  0  0  0  0  0  0  0  0  0  0  0
    5.4515    0.2942    0.7732 C   0  0  0  0  0  0  0  0  0  0  0  0
    6.1068    0.7612   -0.3811 C   0  0  0  0  0  0  0  0  0  0  0  0
    7.4973    0.9486   -0.4426 O   0  0  0  0  0  0  0  0  0  0  0  0
    8.4101    0.7009    0.6246 C   0  0  0  0  0  0  0  0  0  0  0  0
    9.6897    0.9984    0.1979 F   0  0  0  0  0  0  0  0  0  0  0  0
    8.3618   -0.6314    0.9938 F   0  0  0  0  0  0  0  0  0  0  0  0
    8.1042    1.5027    1.7096 F   0  0  0  0  0  0  0  0  0  0  0  0
    5.3503    1.0510   -1.5211 C   0  0  0  0  0  0  0  0  0  0  0  0
    3.9626    0.8851   -1.5180 C   0  0  0  0  0  0  0  0  0  0  0  0
    1.2898   -0.7014    0.4904 N   0  0  0  0  0  0  0  0  0  0  0  0
   -0.0481   -0.9288    0.5630 C   0  0  0  0  0  0  0  0  0  0  0  0
   -3.1887    0.6463    0.2022 N   0  0  0  0  0  0  0  0  0  0  0  0
   -4.5389    0.5245    0.3363 C   0  0  0  0  0  0  0  0  0  0  0  0
   -5.3151    1.6328    0.7142 C   0  0  0  0  0  0  0  0  0  0  0  0
   -6.6980    1.5070    0.8632 C   0  0  0  0  0  0  0  0  0  0  0  0
   -7.3180    0.2769    0.6384 C   0  0  0  0  0  0  0  0  0  0  0  0
   -6.5589   -0.8342    0.2621 C   0  0  0  0  0  0  0  0  0  0  0  0
   -5.1631   -0.7218    0.1062 C   0  0  0  0  0  0  0  0  0  0  0  0
   -4.3721   -1.8191   -0.2767 C   0  0  0  0  0  0  0  0  0  0  0  0
   -4.9095   -2.9437   -0.4796 O   0  0  0  0  0  0  0  0  0  0  0  0
  1  2  1  0
  2  3  4  0
  3  4  1  0
  4  5  4  0
  5  6  4  0
  6  7  4  0
  7  8  1  0
  8  9  4  0
  9 10  4  0
 10 11  4  0
 11 12  1  0
 12 13  1  0
 13 14  1  0
 13 15  1  0
 13 16  1  0
 11 17  4  0
 17 18  4  0
  7 19  4  0
 19 20  4  0
  3 21  4  0
 21 22  4  0
 22 23  4  0
 23 24  4  0
 24 25  4  0
 25 26  4  0
 26 27  4  0
 27 28  4  0
 28 29  2  0
 18  8  4  0
 20  4  4  0
 27 22  4  0
 28  2  4  0
M  END
>  <SMILES>  (5) 
Cc4c(c2ccc(c1ccc(OC(F)(F)F)cc1)nc2)[nH]c3ccccc3c4=O

>  <NumConformers>  (5) 
12

>  <EnergyUnits>  (5) 
RDKit_forcefield

>  <Total_Conformers>  (5) 
12

>  <Energy>  (5) 
67.011901038463051

>  <Energy_Unit>  (5) 
RDKit_forcefield

>  <Rank>  (5) 
5

>  <Conformer_Index>  (5) 
4

$$$$
SL-2-25
     RDKit          3D

 29 32  0  0  0  0  0  0  0  0999 V2000
   -2.1277   -2.9338   -0.4912 C   0  0  0  0  0  0  0  0  0  0  0  0
   -2.9763   -1.6951   -0.3112 C   0  0  0  0  0  0  0  0  0  0  0  0
   -2.3919   -0.4330   -0.0396 C   0  0  0  0  0  0  0  0  0  0  0  0
   -0.9233   -0.2542    0.0368 C   0  0  0  0  0  0  0  0  0  0  0  0
   -0.3345    0.2632    1.1964 C   0  0  0  0  0  0  0  0  0  0  0  0
    1.0474    0.4502    1.2579 C   0  0  0  0  0  0  0  0  0  0  0  0
    1.8433    0.1219    0.1460 C   0  0  0  0  0  0  0  0  0  0  0  0
    3.3176    0.3052    0.1591 C   0  0  0  0  0  0  0  0  0  0  0  0
    4.0025    0.5565   -1.0430 C   0  0  0  0  0  0  0  0  0  0  0  0
    5.3902    0.7252   -1.0519 C   0  0  0  0  0  0  0  0  0  0  0  0
    6.1245    0.6369    0.1452 C   0  0  0  0  0  0  0  0  0  0  0  0
    7.5187    0.7980    0.1954 O   0  0  0  0  0  0  0  0  0  0  0  0
    8.3580    1.0671   -0.9256 C   0  0  0  0  0  0  0  0  0  0  0  0
    9.6665    1.1618   -0.4932 F   0  0  0  0  0  0  0  0  0  0  0  0
    7.9957    2.2647   -1.5159 F   0  0  0  0  0  0  0  0  0  0  0  0
    8.2663    0.0397   -1.8475 F   0  0  0  0  0  0  0  0  0  0  0  0
    5.4465    0.3752    1.3400 C   0  0  0  0  0  0  0  0  0  0  0  0
    4.0590    0.2073    1.3514 C   0  0  0  0  0  0  0  0  0  0  0  0
    1.2404   -0.3542   -0.9798 N   0  0  0  0  0  0  0  0  0  0  0  0
   -0.1027   -0.5452   -1.0612 C   0  0  0  0  0  0  0  0  0  0  0  0
   -3.1899    0.6552    0.1645 N   0  0  0  0  0  0  0  0  0  0  0  0
   -4.5476    0.5859    0.0762 C   0  0  0  0  0  0  0  0  0  0  0  0
   -5.3295    1.7345    0.2837 C   0  0  0  0  0  0  0  0  0  0  0  0
   -6.7208    1.6678    0.1826 C   0  0  0  0  0  0  0  0  0  0  0  0
   -7.3437    0.4577   -0.1272 C   0  0  0  0  0  0  0  0  0  0  0  0
   -6.5790   -0.6928   -0.3363 C   0  0  0  0  0  0  0  0  0  0  0  0
   -5.1746   -0.6410   -0.2358 C   0  0  0  0  0  0  0  0  0  0  0  0
   -4.3775   -1.7818   -0.4348 C   0  0  0  0  0  0  0  0  0  0  0  0
   -4.9177   -2.8864   -0.7223 O   0  0  0  0  0  0  0  0  0  0  0  0
  1  2  1  0
  2  3  4  0
  3  4  1  0
  4  5  4  0
  5  6  4  0
  6  7  4  0
  7  8  1  0
  8  9  4  0
  9 10  4  0
 10 11  4  0
 11 12  1  0
 12 13  1  0
 13 14  1  0
 13 15  1  0
 13 16  1  0
 11 17  4  0
 17 18  4  0
  7 19  4  0
 19 20  4  0
  3 21  4  0
 21 22  4  0
 22 23  4  0
 23 24  4  0
 24 25  4  0
 25 26  4  0
 26 27  4  0
 27 28  4  0
 28 29  2  0
 18  8  4  0
 20  4  4  0
 27 22  4  0
 28  2  4  0
M  END
>  <SMILES>  (6) 
Cc4c(c2ccc(c1ccc(OC(F)(F)F)cc1)nc2)[nH]c3ccccc3c4=O

>  <NumConformers>  (6) 
12

>  <EnergyUnits>  (6) 
RDKit_forcefield

>  <Total_Conformers>  (6) 
12

>  <Energy>  (6) 
67.01190104609843

>  <Energy_Unit>  (6) 
RDKit_forcefield

>  <Rank>  (6) 
6

>  <Conformer_Index>  (6) 
5

$$$$
SL-2-25
     RDKit          3D

 29 32  0  0  0  0  0  0  0  0999 V2000
   -2.1391   -2.9409   -0.4721 C   0  0  0  0  0  0  0  0  0  0  0  0
   -2.9876   -1.7054   -0.2700 C   0  0  0  0  0  0  0  0  0  0  0  0
   -2.4006   -0.4290   -0.0846 C   0  0  0  0  0  0  0  0  0  0  0  0
   -0.9327   -0.2329   -0.1241 C   0  0  0  0  0  0  0  0  0  0  0  0
   -0.2658    0.3292    0.9707 C   0  0  0  0  0  0  0  0  0  0  0  0
    1.1143    0.5322    0.9224 C   0  0  0  0  0  0  0  0  0  0  0  0
    1.8294    0.1746   -0.2344 C   0  0  0  0  0  0  0  0  0  0  0  0
    3.2981    0.3731   -0.3377 C   0  0  0  0  0  0  0  0  0  0  0  0
    4.1276    0.3223    0.7985 C   0  0  0  0  0  0  0  0  0  0  0  0
    5.5089    0.5037    0.6801 C   0  0  0  0  0  0  0  0  0  0  0  0
    6.0910    0.7339   -0.5802 C   0  0  0  0  0  0  0  0  0  0  0  0
    7.4710    0.9244   -0.7569 O   0  0  0  0  0  0  0  0  0  0  0  0
    8.4444    0.9134    0.2852 C   0  0  0  0  0  0  0  0  0  0  0  0
    9.6918    1.1377   -0.2644 F   0  0  0  0  0  0  0  0  0  0  0  0
    8.1741    1.9146    1.2009 F   0  0  0  0  0  0  0  0  0  0  0  0
    8.4509   -0.3164    0.9187 F   0  0  0  0  0  0  0  0  0  0  0  0
    5.2688    0.7736   -1.7108 C   0  0  0  0  0  0  0  0  0  0  0  0
    3.8882    0.5914   -1.5950 C   0  0  0  0  0  0  0  0  0  0  0  0
    1.1504   -0.3451   -1.2958 N   0  0  0  0  0  0  0  0  0  0  0  0
   -0.1925   -0.5524   -1.2702 C   0  0  0  0  0  0  0  0  0  0  0  0
   -3.1949    0.6572    0.1428 N   0  0  0  0  0  0  0  0  0  0  0  0
   -4.5544    0.5713    0.1587 C   0  0  0  0  0  0  0  0  0  0  0  0
   -5.3331    1.7182    0.3862 C   0  0  0  0  0  0  0  0  0  0  0  0
   -6.7272    1.6341    0.3916 C   0  0  0  0  0  0  0  0  0  0  0  0
   -7.3560    0.4080    0.1692 C   0  0  0  0  0  0  0  0  0  0  0  0
   -6.5946   -0.7412   -0.0586 C   0  0  0  0  0  0  0  0  0  0  0  0
   -5.1873   -0.6717   -0.0651 C   0  0  0  0  0  0  0  0  0  0  0  0
   -4.3928   -1.8104   -0.2856 C   0  0  0  0  0  0  0  0  0  0  0  0
   -4.9390   -2.9296   -0.4954 O   0  0  0  0  0  0  0  0  0  0  0  0
  1  2  1  0
  2  3  4  0
  3  4  1  0
  4  5  4  0
  5  6  4  0
  6  7  4  0
  7  8  1  0
  8  9  4  0
  9 10  4  0
 10 11  4  0
 11 12  1  0
 12 13  1  0
 13 14  1  0
 13 15  1  0
 13 16  1  0
 11 17  4  0
 17 18  4  0
  7 19  4  0
 19 20  4  0
  3 21  4  0
 21 22  4  0
 22 23  4  0
 23 24  4  0
 24 25  4  0
 25 26  4  0
 26 27  4  0
 27 28  4  0
 28 29  2  0
 18  8  4  0
 20  4  4  0
 27 22  4  0
 28  2  4  0
M  END
>  <SMILES>  (7) 
Cc4c(c2ccc(c1ccc(OC(F)(F)F)cc1)nc2)[nH]c3ccccc3c4=O

>  <NumConformers>  (7) 
12

>  <EnergyUnits>  (7) 
RDKit_forcefield

>  <Total_Conformers>  (7) 
12

>  <Energy>  (7) 
67.012407602281968

>  <Energy_Unit>  (7) 
RDKit_forcefield

>  <Rank>  (7) 
7

>  <Conformer_Index>  (7) 
6

$$$$
SL-2-25
     RDKit          3D

 29 32  0  0  0  0  0  0  0  0999 V2000
   -2.1539   -2.8291   -0.9360 C   0  0  0  0  0  0  0  0  0  0  0  0
   -2.9950   -1.6494   -0.5024 C   0  0  0  0  0  0  0  0  0  0  0  0
   -2.4018   -0.4200   -0.1219 C   0  0  0  0  0  0  0  0  0  0  0  0
   -0.9315   -0.2421   -0.0859 C   0  0  0  0  0  0  0  0  0  0  0  0
   -0.3237    0.7662   -0.8431 C   0  0  0  0  0  0  0  0  0  0  0  0
    1.0596    0.9449   -0.7910 C   0  0  0  0  0  0  0  0  0  0  0  0
    1.8378    0.1107    0.0311 C   0  0  0  0  0  0  0  0  0  0  0  0
    3.3128    0.2618    0.1247 C   0  0  0  0  0  0  0  0  0  0  0  0
    4.0715    0.7454   -0.9579 C   0  0  0  0  0  0  0  0  0  0  0  0
    5.4600    0.8731   -0.8535 C   0  0  0  0  0  0  0  0  0  0  0  0
    6.1202    0.5132    0.3360 C   0  0  0  0  0  0  0  0  0  0  0  0
    7.5110    0.6225    0.4964 O   0  0  0  0  0  0  0  0  0  0  0  0
    8.4196    1.1008   -0.4931 C   0  0  0  0  0  0  0  0  0  0  0  0
    8.3701    0.2940   -1.6157 F   0  0  0  0  0  0  0  0  0  0  0  0
    8.1092    2.4049   -0.8349 F   0  0  0  0  0  0  0  0  0  0  0  0
    9.7009    1.0686    0.0221 F   0  0  0  0  0  0  0  0  0  0  0  0
    5.3683    0.0224    1.4081 C   0  0  0  0  0  0  0  0  0  0  0  0
    3.9807   -0.1072    1.3055 C   0  0  0  0  0  0  0  0  0  0  0  0
    1.2166   -0.8448    0.7786 N   0  0  0  0  0  0  0  0  0  0  0  0
   -0.1283   -1.0372    0.7424 C   0  0  0  0  0  0  0  0  0  0  0  0
   -3.1925    0.6391    0.2181 N   0  0  0  0  0  0  0  0  0  0  0  0
   -4.5516    0.5500    0.2469 C   0  0  0  0  0  0  0  0  0  0  0  0
   -5.3259    1.6635    0.6134 C   0  0  0  0  0  0  0  0  0  0  0  0
   -6.7188    1.5708    0.6543 C   0  0  0  0  0  0  0  0  0  0  0  0
   -7.3508    0.3687    0.3320 C   0  0  0  0  0  0  0  0  0  0  0  0
   -6.5938   -0.7471   -0.0343 C   0  0  0  0  0  0  0  0  0  0  0  0
   -5.1878   -0.6677   -0.0817 C   0  0  0  0  0  0  0  0  0  0  0  0
   -4.3981   -1.7704   -0.4517 C   0  0  0  0  0  0  0  0  0  0  0  0
   -4.9468   -2.8703   -0.7414 O   0  0  0  0  0  0  0  0  0  0  0  0
  1  2  1  0
  2  3  4  0
  3  4  1  0
  4  5  4  0
  5  6  4  0
  6  7  4  0
  7  8  1  0
  8  9  4  0
  9 10  4  0
 10 11  4  0
 11 12  1  0
 12 13  1  0
 13 14  1  0
 13 15  1  0
 13 16  1  0
 11 17  4  0
 17 18  4  0
  7 19  4  0
 19 20  4  0
  3 21  4  0
 21 22  4  0
 22 23  4  0
 23 24  4  0
 24 25  4  0
 25 26  4  0
 26 27  4  0
 27 28  4  0
 28 29  2  0
 18  8  4  0
 20  4  4  0
 27 22  4  0
 28  2  4  0
M  END
>  <SMILES>  (8) 
Cc4c(c2ccc(c1ccc(OC(F)(F)F)cc1)nc2)[nH]c3ccccc3c4=O

>  <NumConformers>  (8) 
12

>  <EnergyUnits>  (8) 
RDKit_forcefield

>  <Total_Conformers>  (8) 
12

>  <Energy>  (8) 
67.012407694448441

>  <Energy_Unit>  (8) 
RDKit_forcefield

>  <Rank>  (8) 
8

>  <Conformer_Index>  (8) 
7

$$$$
SL-2-25
     RDKit          3D

 29 32  0  0  0  0  0  0  0  0999 V2000
   -2.0683   -2.6745   -1.2217 C   0  0  0  0  0  0  0  0  0  0  0  0
   -2.9477   -1.5616   -0.6971 C   0  0  0  0  0  0  0  0  0  0  0  0
   -2.3933   -0.3961   -0.1117 C   0  0  0  0  0  0  0  0  0  0  0  0
   -0.9293   -0.1879   -0.0248 C   0  0  0  0  0  0  0  0  0  0  0  0
   -0.3180    0.0143    1.2180 C   0  0  0  0  0  0  0  0  0  0  0  0
    1.0591    0.2284    1.2957 C   0  0  0  0  0  0  0  0  0  0  0  0
    1.8256    0.2574    0.1171 C   0  0  0  0  0  0  0  0  0  0  0  0
    3.2948    0.4761    0.1452 C   0  0  0  0  0  0  0  0  0  0  0  0
    4.1023   -0.0660   -0.8703 C   0  0  0  0  0  0  0  0  0  0  0  0
    5.4859    0.1339   -0.8649 C   0  0  0  0  0  0  0  0  0  0  0  0
    6.0907    0.8904    0.1558 C   0  0  0  0  0  0  0  0  0  0  0  0
    7.4746    1.1229    0.2114 O   0  0  0  0  0  0  0  0  0  0  0  0
    8.4301    0.6378   -0.7294 C   0  0  0  0  0  0  0  0  0  0  0  0
    8.4165   -0.7454   -0.7528 F   0  0  0  0  0  0  0  0  0  0  0  0
    9.6882    1.0643   -0.3508 F   0  0  0  0  0  0  0  0  0  0  0  0
    8.1520    1.1338   -1.9905 F   0  0  0  0  0  0  0  0  0  0  0  0
    5.2878    1.4402    1.1602 C   0  0  0  0  0  0  0  0  0  0  0  0
    3.9044    1.2407    1.1575 C   0  0  0  0  0  0  0  0  0  0  0  0
    1.2030    0.0656   -1.0801 N   0  0  0  0  0  0  0  0  0  0  0  0
   -0.1356   -0.1473   -1.1788 C   0  0  0  0  0  0  0  0  0  0  0  0
   -3.2169    0.5666    0.3956 N   0  0  0  0  0  0  0  0  0  0  0  0
   -4.5740    0.4717    0.3242 C   0  0  0  0  0  0  0  0  0  0  0  0
   -5.3832    1.4924    0.8504 C   0  0  0  0  0  0  0  0  0  0  0  0
   -6.7744    1.4022    0.7680 C   0  0  0  0  0  0  0  0  0  0  0  0
   -7.3701    0.2958    0.1602 C   0  0  0  0  0  0  0  0  0  0  0  0
   -6.5781   -0.7271   -0.3676 C   0  0  0  0  0  0  0  0  0  0  0  0
   -5.1733   -0.6504   -0.2902 C   0  0  0  0  0  0  0  0  0  0  0  0
   -4.3489   -1.6655   -0.8062 C   0  0  0  0  0  0  0  0  0  0  0  0
   -4.8644   -2.6732   -1.3660 O   0  0  0  0  0  0  0  0  0  0  0  0
  1  2  1  0
  2  3  4  0
  3  4  1  0
  4  5  4  0
  5  6  4  0
  6  7  4  0
  7  8  1  0
  8  9  4  0
  9 10  4  0
 10 11  4  0
 11 12  1  0
 12 13  1  0
 13 14  1  0
 13 15  1  0
 13 16  1  0
 11 17  4  0
 17 18  4  0
  7 19  4  0
 19 20  4  0
  3 21  4  0
 21 22  4  0
 22 23  4  0
 23 24  4  0
 24 25  4  0
 25 26  4  0
 26 27  4  0
 27 28  4  0
 28 29  2  0
 18  8  4  0
 20  4  4  0
 27 22  4  0
 28  2  4  0
M  END
>  <SMILES>  (9) 
Cc4c(c2ccc(c1ccc(OC(F)(F)F)cc1)nc2)[nH]c3ccccc3c4=O

>  <NumConformers>  (9) 
12

>  <EnergyUnits>  (9) 
RDKit_forcefield

>  <Total_Conformers>  (9) 
12

>  <Energy>  (9) 
67.028044644203291

>  <Energy_Unit>  (9) 
RDKit_forcefield

>  <Rank>  (9) 
9

>  <Conformer_Index>  (9) 
8

$$$$
SL-2-25
     RDKit          3D

 29 32  0  0  0  0  0  0  0  0999 V2000
   -2.1490   -1.7652   -2.3148 C   0  0  0  0  0  0  0  0  0  0  0  0
   -2.9879   -1.1091   -1.2410 C   0  0  0  0  0  0  0  0  0  0  0  0
   -2.4036   -0.2800   -0.2514 C   0  0  0  0  0  0  0  0  0  0  0  0
   -0.9415   -0.0503   -0.1902 C   0  0  0  0  0  0  0  0  0  0  0  0
   -0.4277    1.2494   -0.2668 C   0  0  0  0  0  0  0  0  0  0  0  0
    0.9493    1.4649   -0.1906 C   0  0  0  0  0  0  0  0  0  0  0  0
    1.8156    0.3705   -0.0188 C   0  0  0  0  0  0  0  0  0  0  0  0
    3.2887    0.5448    0.0626 C   0  0  0  0  0  0  0  0  0  0  0  0
    4.1401   -0.4922   -0.3580 C   0  0  0  0  0  0  0  0  0  0  0  0
    5.5288   -0.3498   -0.2834 C   0  0  0  0  0  0  0  0  0  0  0  0
    6.0957    0.8341    0.2234 C   0  0  0  0  0  0  0  0  0  0  0  0
    7.4827    1.0317    0.3210 O   0  0  0  0  0  0  0  0  0  0  0  0
    8.4788    0.0892   -0.0700 C   0  0  0  0  0  0  0  0  0  0  0  0
    9.7267    0.6302    0.1710 F   0  0  0  0  0  0  0  0  0  0  0  0
    8.3672   -0.1901   -1.4203 F   0  0  0  0  0  0  0  0  0  0  0  0
    8.3481   -1.0753    0.6652 F   0  0  0  0  0  0  0  0  0  0  0  0
    5.2503    1.8620    0.6531 C   0  0  0  0  0  0  0  0  0  0  0  0
    3.8616    1.7223    0.5785 C   0  0  0  0  0  0  0  0  0  0  0  0
    1.2873   -0.8834    0.0608 N   0  0  0  0  0  0  0  0  0  0  0  0
   -0.0495   -1.1164   -0.0138 C   0  0  0  0  0  0  0  0  0  0  0  0
   -3.1964    0.3355    0.6735 N   0  0  0  0  0  0  0  0  0  0  0  0
   -4.5454    0.1497    0.7113 C   0  0  0  0  0  0  0  0  0  0  0  0
   -5.3213    0.7953    1.6884 C   0  0  0  0  0  0  0  0  0  0  0  0
   -6.7030    0.5972    1.7357 C   0  0  0  0  0  0  0  0  0  0  0  0
   -7.3220   -0.2460    0.8116 C   0  0  0  0  0  0  0  0  0  0  0  0
   -6.5632   -0.8949   -0.1659 C   0  0  0  0  0  0  0  0  0  0  0  0
   -5.1687   -0.7031   -0.2268 C   0  0  0  0  0  0  0  0  0  0  0  0
   -4.3781   -1.3367   -1.2015 C   0  0  0  0  0  0  0  0  0  0  0  0
   -4.9146   -2.1088   -2.0445 O   0  0  0  0  0  0  0  0  0  0  0  0
  1  2  1  0
  2  3  4  0
  3  4  1  0
  4  5  4  0
  5  6  4  0
  6  7  4  0
  7  8  1  0
  8  9  4  0
  9 10  4  0
 10 11  4  0
 11 12  1  0
 12 13  1  0
 13 14  1  0
 13 15  1  0
 13 16  1  0
 11 17  4  0
 17 18  4  0
  7 19  4  0
 19 20  4  0
  3 21  4  0
 21 22  4  0
 22 23  4  0
 23 24  4  0
 24 25  4  0
 25 26  4  0
 26 27  4  0
 27 28  4  0
 28 29  2  0
 18  8  4  0
 20  4  4  0
 27 22  4  0
 28  2  4  0
M  END
>  <SMILES>  (10) 
Cc4c(c2ccc(c1ccc(OC(F)(F)F)cc1)nc2)[nH]c3ccccc3c4=O

>  <NumConformers>  (10) 
12

>  <EnergyUnits>  (10) 
RDKit_forcefield

>  <Total_Conformers>  (10) 
12

>  <Energy>  (10) 
67.028044645216937

>  <Energy_Unit>  (10) 
RDKit_forcefield

>  <Rank>  (10) 
10

>  <Conformer_Index>  (10) 
9

$$$$
SL-2-25
     RDKit          3D

 29 32  0  0  0  0  0  0  0  0999 V2000
   -2.2466   -2.6117   -1.4932 C   0  0  0  0  0  0  0  0  0  0  0  0
   -3.0427   -1.5175   -0.8180 C   0  0  0  0  0  0  0  0  0  0  0  0
   -2.4032   -0.4242   -0.1821 C   0  0  0  0  0  0  0  0  0  0  0  0
   -0.9296   -0.2735   -0.1851 C   0  0  0  0  0  0  0  0  0  0  0  0
   -0.2259   -0.1963    1.0224 C   0  0  0  0  0  0  0  0  0  0  0  0
    1.1607   -0.0359    1.0170 C   0  0  0  0  0  0  0  0  0  0  0  0
    1.8439    0.0655   -0.2080 C   0  0  0  0  0  0  0  0  0  0  0  0
    3.3189    0.2315   -0.2690 C   0  0  0  0  0  0  0  0  0  0  0  0
    4.0317   -0.2515   -1.3804 C   0  0  0  0  0  0  0  0  0  0  0  0
    5.4186   -0.0986   -1.4571 C   0  0  0  0  0  0  0  0  0  0  0  0
    6.1231    0.5448   -0.4347 C   0  0  0  0  0  0  0  0  0  0  0  0
    7.5158    0.6688   -0.5653 O   0  0  0  0  0  0  0  0  0  0  0  0
    8.3797    1.2946    0.3810 C   0  0  0  0  0  0  0  0  0  0  0  0
    8.0337    2.6250    0.5357 F   0  0  0  0  0  0  0  0  0  0  0  0
    9.6789    1.2236   -0.0829 F   0  0  0  0  0  0  0  0  0  0  0  0
    8.3050    0.6428    1.5989 F   0  0  0  0  0  0  0  0  0  0  0  0
    5.4148    1.0416    0.6752 C   0  0  0  0  0  0  0  0  0  0  0  0
    4.0273    0.8887    0.7547 C   0  0  0  0  0  0  0  0  0  0  0  0
    1.1325   -0.0048   -1.3684 N   0  0  0  0  0  0  0  0  0  0  0  0
   -0.2171   -0.1635   -1.3866 C   0  0  0  0  0  0  0  0  0  0  0  0
   -3.1508    0.5200    0.4597 N   0  0  0  0  0  0  0  0  0  0  0  0
   -4.5123    0.4772    0.4796 C   0  0  0  0  0  0  0  0  0  0  0  0
   -5.2420    1.4772    1.1438 C   0  0  0  0  0  0  0  0  0  0  0  0
   -6.6381    1.4410    1.1556 C   0  0  0  0  0  0  0  0  0  0  0  0
   -7.3178    0.4100    0.5052 C   0  0  0  0  0  0  0  0  0  0  0  0
   -6.6055   -0.5915   -0.1596 C   0  0  0  0  0  0  0  0  0  0  0  0
   -5.1968   -0.5690   -0.1783 C   0  0  0  0  0  0  0  0  0  0  0  0
   -4.4510   -1.5646   -0.8331 C   0  0  0  0  0  0  0  0  0  0  0  0
   -5.0438   -2.5042   -1.4337 O   0  0  0  0  0  0  0  0  0  0  0  0
  1  2  1  0
  2  3  4  0
  3  4  1  0
  4  5  4  0
  5  6  4  0
  6  7  4  0
  7  8  1  0
  8  9  4  0
  9 10  4  0
 10 11  4  0
 11 12  1  0
 12 13  1  0
 13 14  1  0
 13 15  1  0
 13 16  1  0
 11 17  4  0
 17 18  4  0
  7 19  4  0
 19 20  4  0
  3 21  4  0
 21 22  4  0
 22 23  4  0
 23 24  4  0
 24 25  4  0
 25 26  4  0
 26 27  4  0
 27 28  4  0
 28 29  2  0
 18  8  4  0
 20  4  4  0
 27 22  4  0
 28  2  4  0
M  END
>  <SMILES>  (11) 
Cc4c(c2ccc(c1ccc(OC(F)(F)F)cc1)nc2)[nH]c3ccccc3c4=O

>  <NumConformers>  (11) 
12

>  <EnergyUnits>  (11) 
RDKit_forcefield

>  <Total_Conformers>  (11) 
12

>  <Energy>  (11) 
67.028913505568156

>  <Energy_Unit>  (11) 
RDKit_forcefield

>  <Rank>  (11) 
11

>  <Conformer_Index>  (11) 
10

$$$$
SL-2-25
     RDKit          3D

 29 32  0  0  0  0  0  0  0  0999 V2000
   -2.3248   -1.7100   -2.4320 C   0  0  0  0  0  0  0  0  0  0  0  0
   -3.0827   -1.0560   -1.2984 C   0  0  0  0  0  0  0  0  0  0  0  0
   -2.4121   -0.3221   -0.2885 C   0  0  0  0  0  0  0  0  0  0  0  0
   -0.9363   -0.1962   -0.2656 C   0  0  0  0  0  0  0  0  0  0  0  0
   -0.3355    1.0677   -0.2937 C   0  0  0  0  0  0  0  0  0  0  0  0
    1.0548    1.1845   -0.2535 C   0  0  0  0  0  0  0  0  0  0  0  0
    1.8473    0.0260   -0.1669 C   0  0  0  0  0  0  0  0  0  0  0  0
    3.3308    0.0949   -0.1268 C   0  0  0  0  0  0  0  0  0  0  0  0
    4.0001    1.2016    0.4289 C   0  0  0  0  0  0  0  0  0  0  0  0
    5.3973    1.2443    0.4642 C   0  0  0  0  0  0  0  0  0  0  0  0
    6.1551    0.1763   -0.0510 C   0  0  0  0  0  0  0  0  0  0  0  0
    7.5593    0.1672   -0.0431 O   0  0  0  0  0  0  0  0  0  0  0  0
    8.3872    1.2084    0.4707 C   0  0  0  0  0  0  0  0  0  0  0  0
    8.1537    2.3863   -0.2162 F   0  0  0  0  0  0  0  0  0  0  0  0
    8.1407    1.3919    1.8195 F   0  0  0  0  0  0  0  0  0  0  0  0
    9.7112    0.8513    0.3047 F   0  0  0  0  0  0  0  0  0  0  0  0
    5.4906   -0.9282   -0.5934 C   0  0  0  0  0  0  0  0  0  0  0  0
    4.0944   -0.9736   -0.6286 C   0  0  0  0  0  0  0  0  0  0  0  0
    1.2354   -1.1915   -0.1330 N   0  0  0  0  0  0  0  0  0  0  0  0
   -0.1160   -1.3285   -0.1738 C   0  0  0  0  0  0  0  0  0  0  0  0
   -3.1314    0.2962    0.6928 N   0  0  0  0  0  0  0  0  0  0  0  0
   -4.4884    0.2011    0.7670 C   0  0  0  0  0  0  0  0  0  0  0  0
   -5.1872    0.8456    1.8014 C   0  0  0  0  0  0  0  0  0  0  0  0
   -6.5772    0.7399    1.8855 C   0  0  0  0  0  0  0  0  0  0  0  0
   -7.2815   -0.0091    0.9415 C   0  0  0  0  0  0  0  0  0  0  0  0
   -6.6000   -0.6557   -0.0928 C   0  0  0  0  0  0  0  0  0  0  0  0
   -5.1979   -0.5564   -0.1914 C   0  0  0  0  0  0  0  0  0  0  0  0
   -4.4835   -1.1900   -1.2232 C   0  0  0  0  0  0  0  0  0  0  0  0
   -5.0981   -1.8781   -2.0855 O   0  0  0  0  0  0  0  0  0  0  0  0
  1  2  1  0
  2  3  4  0
  3  4  1  0
  4  5  4  0
  5  6  4  0
  6  7  4  0
  7  8  1  0
  8  9  4  0
  9 10  4  0
 10 11  4  0
 11 12  1  0
 12 13  1  0
 13 14  1  0
 13 15  1  0
 13 16  1  0
 11 17  4  0
 17 18  4  0
  7 19  4  0
 19 20  4  0
  3 21  4  0
 21 22  4  0
 22 23  4  0
 23 24  4  0
 24 25  4  0
 25 26  4  0
 26 27  4  0
 27 28  4  0
 28 29  2  0
 18  8  4  0
 20  4  4  0
 27 22  4  0
 28  2  4  0
M  END
>  <SMILES>  (12) 
Cc4c(c2ccc(c1ccc(OC(F)(F)F)cc1)nc2)[nH]c3ccccc3c4=O

>  <NumConformers>  (12) 
12

>  <EnergyUnits>  (12) 
RDKit_forcefield

>  <Total_Conformers>  (12) 
12

>  <Energy>  (12) 
67.028913505982487

>  <Energy_Unit>  (12) 
RDKit_forcefield

>  <Rank>  (12) 
12

>  <Conformer_Index>  (12) 
11

$$$$
