WDH-2G-6
     RDKit          3D

 31 34  0  0  0  0  0  0  0  0999 V2000
   -0.4370   -2.1602    0.8505 C   0  0  0  0  0  0  0  0  0  0  0  0
   -0.5882   -1.3363   -0.4344 C   0  0  0  0  0  0  0  0  0  0  0  0
   -0.3839   -2.2053   -1.6846 C   0  0  0  0  0  0  0  0  0  0  0  0
   -1.9222   -0.5761   -0.4664 C   0  0  0  0  0  0  0  0  0  0  0  0
   -1.9675    0.8460   -0.4137 C   0  0  0  0  0  0  0  0  0  0  0  0
   -0.7641    1.6663   -0.1646 C   0  0  0  0  0  0  0  0  0  0  0  0
   -0.3161    2.7372   -0.9149 C   0  0  0  0  0  0  0  0  0  0  0  0
    0.8060    3.2309   -0.3543 N   0  0  0  0  0  0  0  0  0  0  0  0
    1.0507    2.5246    0.7392 N   0  0  0  0  0  0  0  0  0  0  0  0
    2.2408    2.6880    1.5660 C   0  0  0  0  0  0  0  0  0  0  0  0
    3.2700    1.6637    1.1751 C   0  0  0  0  0  0  0  0  0  0  0  0
    3.2570    0.3896    1.7625 C   0  0  0  0  0  0  0  0  0  0  0  0
    4.1673   -0.5882    1.3511 C   0  0  0  0  0  0  0  0  0  0  0  0
    5.1015   -0.3063    0.3354 C   0  0  0  0  0  0  0  0  0  0  0  0
    6.0363   -1.2503   -0.1197 O   0  0  0  0  0  0  0  0  0  0  0  0
    6.1606   -2.5857    0.3645 C   0  0  0  0  0  0  0  0  0  0  0  0
    4.9843   -3.2819    0.1509 F   0  0  0  0  0  0  0  0  0  0  0  0
    6.4656   -2.5772    1.7139 F   0  0  0  0  0  0  0  0  0  0  0  0
    7.1818   -3.2169   -0.3188 F   0  0  0  0  0  0  0  0  0  0  0  0
    5.1035    0.9633   -0.2546 C   0  0  0  0  0  0  0  0  0  0  0  0
    4.1913    1.9401    0.1546 C   0  0  0  0  0  0  0  0  0  0  0  0
    0.1152    1.5698    0.8926 C   0  0  0  0  0  0  0  0  0  0  0  0
   -3.1542    1.4991   -0.5765 N   0  0  0  0  0  0  0  0  0  0  0  0
   -4.3331    0.8386   -0.7342 C   0  0  0  0  0  0  0  0  0  0  0  0
   -5.5316    1.5569   -0.8822 C   0  0  0  0  0  0  0  0  0  0  0  0
   -6.7450    0.8813   -1.0275 C   0  0  0  0  0  0  0  0  0  0  0  0
   -6.7740   -0.5138   -1.0247 C   0  0  0  0  0  0  0  0  0  0  0  0
   -5.5896   -1.2404   -0.8785 C   0  0  0  0  0  0  0  0  0  0  0  0
   -4.3572   -0.5715   -0.7330 C   0  0  0  0  0  0  0  0  0  0  0  0
   -3.1479   -1.2750   -0.5944 C   0  0  0  0  0  0  0  0  0  0  0  0
   -3.1637   -2.5365   -0.5859 O   0  0  0  0  0  0  0  0  0  0  0  0
  1  2  1  0
  2  3  1  0
  2  4  1  0
  4  5  4  0
  5  6  1  0
  6  7  4  0
  7  8  4  0
  8  9  4  0
  9 10  1  0
 10 11  1  0
 11 12  4  0
 12 13  4  0
 13 14  4  0
 14 15  1  0
 15 16  1  0
 16 17  1  0
 16 18  1  0
 16 19  1  0
 14 20  4  0
 20 21  4  0
  9 22  4  0
  5 23  4  0
 23 24  4  0
 24 25  4  0
 25 26  4  0
 26 27  4  0
 27 28  4  0
 28 29  4  0
 29 30  4  0
 30 31  2  0
 21 11  4  0
 22  6  4  0
 29 24  4  0
 30  4  4  0
M  END
>  <SMILES>  (1) 
CC(C)c4c(c2cnn(Cc1ccc(OC(F)(F)F)cc1)c2)[nH]c3ccccc3c4=O

>  <NumConformers>  (1) 
34

>  <EnergyUnits>  (1) 
RDKit_forcefield

>  <Processing_Time>  (1) 
90.2s

>  <Original_Conformers>  (1) 
500

>  <Total_Conformers>  (1) 
34

>  <Energy>  (1) 
95.013364418340942

>  <Energy_Unit>  (1) 
RDKit_forcefield

>  <Rank>  (1) 
1

>  <Conformer_Index>  (1) 
0

$$$$
WDH-2G-6
     RDKit          3D

 31 34  0  0  0  0  0  0  0  0999 V2000
   -0.0037   -1.6990   -1.6816 C   0  0  0  0  0  0  0  0  0  0  0  0
   -0.6067   -1.3563   -0.3136 C   0  0  0  0  0  0  0  0  0  0  0  0
   -0.7633   -2.6103    0.5598 C   0  0  0  0  0  0  0  0  0  0  0  0
   -1.9227   -0.5773   -0.4533 C   0  0  0  0  0  0  0  0  0  0  0  0
   -2.0323    0.7771   -0.0280 C   0  0  0  0  0  0  0  0  0  0  0  0
   -0.8628    1.5622    0.4182 C   0  0  0  0  0  0  0  0  0  0  0  0
   -0.7428    2.2846    1.5906 C   0  0  0  0  0  0  0  0  0  0  0  0
    0.4685    2.8752    1.6237 N   0  0  0  0  0  0  0  0  0  0  0  0
    1.0919    2.5723    0.4949 N   0  0  0  0  0  0  0  0  0  0  0  0
    2.4718    2.9415    0.2012 C   0  0  0  0  0  0  0  0  0  0  0  0
    3.3803    1.7849    0.5145 C   0  0  0  0  0  0  0  0  0  0  0  0
    3.9037    1.6263    1.8058 C   0  0  0  0  0  0  0  0  0  0  0  0
    4.6925    0.5144    2.1146 C   0  0  0  0  0  0  0  0  0  0  0  0
    4.9588   -0.4620    1.1471 C   0  0  0  0  0  0  0  0  0  0  0  0
    5.7522   -1.5607    1.5150 O   0  0  0  0  0  0  0  0  0  0  0  0
    6.1097   -2.6423    0.6572 C   0  0  0  0  0  0  0  0  0  0  0  0
    6.8931   -3.5343    1.3633 F   0  0  0  0  0  0  0  0  0  0  0  0
    6.8330   -2.1735   -0.4250 F   0  0  0  0  0  0  0  0  0  0  0  0
    4.9735   -3.2978    0.2174 F   0  0  0  0  0  0  0  0  0  0  0  0
    4.4219   -0.3093   -0.1461 C   0  0  0  0  0  0  0  0  0  0  0  0
    3.6354    0.8040   -0.4557 C   0  0  0  0  0  0  0  0  0  0  0  0
    0.3128    1.7829   -0.2668 C   0  0  0  0  0  0  0  0  0  0  0  0
   -3.2447    1.4023   -0.0411 N   0  0  0  0  0  0  0  0  0  0  0  0
   -4.3711    0.7969   -0.5055 C   0  0  0  0  0  0  0  0  0  0  0  0
   -5.5940    1.4889   -0.5132 C   0  0  0  0  0  0  0  0  0  0  0  0
   -6.7480    0.8755   -1.0049 C   0  0  0  0  0  0  0  0  0  0  0  0
   -6.6925   -0.4303   -1.4938 C   0  0  0  0  0  0  0  0  0  0  0  0
   -5.4832   -1.1299   -1.4920 C   0  0  0  0  0  0  0  0  0  0  0  0
   -4.3106   -0.5238   -0.9968 C   0  0  0  0  0  0  0  0  0  0  0  0
   -3.0815   -1.2058   -0.9723 C   0  0  0  0  0  0  0  0  0  0  0  0
   -3.0197   -2.3851   -1.4163 O   0  0  0  0  0  0  0  0  0  0  0  0
  1  2  1  0
  2  3  1  0
  2  4  1  0
  4  5  4  0
  5  6  1  0
  6  7  4  0
  7  8  4  0
  8  9  4  0
  9 10  1  0
 10 11  1  0
 11 12  4  0
 12 13  4  0
 13 14  4  0
 14 15  1  0
 15 16  1  0
 16 17  1  0
 16 18  1  0
 16 19  1  0
 14 20  4  0
 20 21  4  0
  9 22  4  0
  5 23  4  0
 23 24  4  0
 24 25  4  0
 25 26  4  0
 26 27  4  0
 27 28  4  0
 28 29  4  0
 29 30  4  0
 30 31  2  0
 21 11  4  0
 22  6  4  0
 29 24  4  0
 30  4  4  0
M  END
>  <SMILES>  (2) 
CC(C)c4c(c2cnn(Cc1ccc(OC(F)(F)F)cc1)c2)[nH]c3ccccc3c4=O

>  <NumConformers>  (2) 
34

>  <EnergyUnits>  (2) 
RDKit_forcefield

>  <Processing_Time>  (2) 
90.2s

>  <Original_Conformers>  (2) 
500

>  <Total_Conformers>  (2) 
34

>  <Energy>  (2) 
95.014532194933849

>  <Energy_Unit>  (2) 
RDKit_forcefield

>  <Rank>  (2) 
2

>  <Conformer_Index>  (2) 
1

$$$$
WDH-2G-6
     RDKit          3D

 31 34  0  0  0  0  0  0  0  0999 V2000
   -0.7846   -2.1299    1.2592 C   0  0  0  0  0  0  0  0  0  0  0  0
   -0.8017   -1.4778   -0.1289 C   0  0  0  0  0  0  0  0  0  0  0  0
   -0.6115   -2.5209   -1.2405 C   0  0  0  0  0  0  0  0  0  0  0  0
   -2.0626   -0.6273   -0.3398 C   0  0  0  0  0  0  0  0  0  0  0  0
   -1.9891    0.7880   -0.4770 C   0  0  0  0  0  0  0  0  0  0  0  0
   -0.7338    1.5390   -0.2674 C   0  0  0  0  0  0  0  0  0  0  0  0
   -0.1700    2.4716   -1.1179 C   0  0  0  0  0  0  0  0  0  0  0  0
    0.9567    2.9561   -0.5586 N   0  0  0  0  0  0  0  0  0  0  0  0
    1.0939    2.3809    0.6266 N   0  0  0  0  0  0  0  0  0  0  0  0
    2.2464    2.5757    1.4985 C   0  0  0  0  0  0  0  0  0  0  0  0
    3.2360    1.4645    1.2829 C   0  0  0  0  0  0  0  0  0  0  0  0
    4.2269    1.5808    0.2971 C   0  0  0  0  0  0  0  0  0  0  0  0
    5.1100    0.5242    0.0545 C   0  0  0  0  0  0  0  0  0  0  0  0
    5.0039   -0.6734    0.7887 C   0  0  0  0  0  0  0  0  0  0  0  0
    5.8608   -1.7673    0.5857 O   0  0  0  0  0  0  0  0  0  0  0  0
    6.9239   -1.8160   -0.3633 C   0  0  0  0  0  0  0  0  0  0  0  0
    7.8523   -0.8273   -0.0906 F   0  0  0  0  0  0  0  0  0  0  0  0
    6.4271   -1.6564   -1.6445 F   0  0  0  0  0  0  0  0  0  0  0  0
    7.5456   -3.0465   -0.2770 F   0  0  0  0  0  0  0  0  0  0  0  0
    4.0035   -0.7896    1.7610 C   0  0  0  0  0  0  0  0  0  0  0  0
    3.1220    0.2670    2.0048 C   0  0  0  0  0  0  0  0  0  0  0  0
    0.0836    1.5189    0.8428 C   0  0  0  0  0  0  0  0  0  0  0  0
   -3.1069    1.5032   -0.7940 N   0  0  0  0  0  0  0  0  0  0  0  0
   -4.3286    0.9212   -0.9337 C   0  0  0  0  0  0  0  0  0  0  0  0
   -5.4531    1.7039   -1.2459 C   0  0  0  0  0  0  0  0  0  0  0  0
   -6.7111    1.1113   -1.3737 C   0  0  0  0  0  0  0  0  0  0  0  0
   -6.8587   -0.2641   -1.1898 C   0  0  0  0  0  0  0  0  0  0  0  0
   -5.7489   -1.0540   -0.8791 C   0  0  0  0  0  0  0  0  0  0  0  0
   -4.4726   -0.4695   -0.7492 C   0  0  0  0  0  0  0  0  0  0  0  0
   -3.3358   -1.2395   -0.4477 C   0  0  0  0  0  0  0  0  0  0  0  0
   -3.4593   -2.4832   -0.2751 O   0  0  0  0  0  0  0  0  0  0  0  0
  1  2  1  0
  2  3  1  0
  2  4  1  0
  4  5  4  0
  5  6  1  0
  6  7  4  0
  7  8  4  0
  8  9  4  0
  9 10  1  0
 10 11  1  0
 11 12  4  0
 12 13  4  0
 13 14  4  0
 14 15  1  0
 15 16  1  0
 16 17  1  0
 16 18  1  0
 16 19  1  0
 14 20  4  0
 20 21  4  0
  9 22  4  0
  5 23  4  0
 23 24  4  0
 24 25  4  0
 25 26  4  0
 26 27  4  0
 27 28  4  0
 28 29  4  0
 29 30  4  0
 30 31  2  0
 21 11  4  0
 22  6  4  0
 29 24  4  0
 30  4  4  0
M  END
>  <SMILES>  (3) 
CC(C)c4c(c2cnn(Cc1ccc(OC(F)(F)F)cc1)c2)[nH]c3ccccc3c4=O

>  <NumConformers>  (3) 
34

>  <EnergyUnits>  (3) 
RDKit_forcefield

>  <Processing_Time>  (3) 
90.2s

>  <Original_Conformers>  (3) 
500

>  <Total_Conformers>  (3) 
34

>  <Energy>  (3) 
95.083222680075409

>  <Energy_Unit>  (3) 
RDKit_forcefield

>  <Rank>  (3) 
3

>  <Conformer_Index>  (3) 
2

$$$$
WDH-2G-6
     RDKit          3D

 31 34  0  0  0  0  0  0  0  0999 V2000
   -0.2692   -1.7300   -1.9673 C   0  0  0  0  0  0  0  0  0  0  0  0
   -0.7333   -1.4250   -0.5376 C   0  0  0  0  0  0  0  0  0  0  0  0
   -0.8507   -2.7078    0.2993 C   0  0  0  0  0  0  0  0  0  0  0  0
   -2.0304   -0.6032   -0.5262 C   0  0  0  0  0  0  0  0  0  0  0  0
   -2.0569    0.7354   -0.0415 C   0  0  0  0  0  0  0  0  0  0  0  0
   -0.8272    1.4682    0.3256 C   0  0  0  0  0  0  0  0  0  0  0  0
   -0.5850    2.1504    1.5033 C   0  0  0  0  0  0  0  0  0  0  0  0
    0.6391    2.7117    1.4456 N   0  0  0  0  0  0  0  0  0  0  0  0
    1.1524    2.4299    0.2575 N   0  0  0  0  0  0  0  0  0  0  0  0
    2.5077    2.7825   -0.1493 C   0  0  0  0  0  0  0  0  0  0  0  0
    3.4249    1.6145    0.0857 C   0  0  0  0  0  0  0  0  0  0  0  0
    3.5835    0.6308   -0.9019 C   0  0  0  0  0  0  0  0  0  0  0  0
    4.3864   -0.4871   -0.6608 C   0  0  0  0  0  0  0  0  0  0  0  0
    5.0344   -0.6472    0.5698 C   0  0  0  0  0  0  0  0  0  0  0  0
    5.8278   -1.7907    0.7569 O   0  0  0  0  0  0  0  0  0  0  0  0
    6.5476   -2.1083    1.9462 C   0  0  0  0  0  0  0  0  0  0  0  0
    7.2110   -3.3059    1.7622 F   0  0  0  0  0  0  0  0  0  0  0  0
    7.4773   -1.1209    2.2190 F   0  0  0  0  0  0  0  0  0  0  0  0
    5.6743   -2.2414    3.0109 F   0  0  0  0  0  0  0  0  0  0  0  0
    4.8645    0.3339    1.5663 C   0  0  0  0  0  0  0  0  0  0  0  0
    4.0597    1.4517    1.3257 C   0  0  0  0  0  0  0  0  0  0  0  0
    0.2895    1.6822   -0.4543 C   0  0  0  0  0  0  0  0  0  0  0  0
   -3.2447    1.3953    0.0798 N   0  0  0  0  0  0  0  0  0  0  0  0
   -4.4275    0.8420   -0.3019 C   0  0  0  0  0  0  0  0  0  0  0  0
   -5.6230    1.5689   -0.1713 C   0  0  0  0  0  0  0  0  0  0  0  0
   -6.8362    1.0096   -0.5779 C   0  0  0  0  0  0  0  0  0  0  0  0
   -6.8675   -0.2763   -1.1188 C   0  0  0  0  0  0  0  0  0  0  0  0
   -5.6863   -1.0101   -1.2541 C   0  0  0  0  0  0  0  0  0  0  0  0
   -4.4547   -0.4588   -0.8460 C   0  0  0  0  0  0  0  0  0  0  0  0
   -3.2513   -1.1764   -0.9600 C   0  0  0  0  0  0  0  0  0  0  0  0
   -3.2683   -2.3380   -1.4520 O   0  0  0  0  0  0  0  0  0  0  0  0
  1  2  1  0
  2  3  1  0
  2  4  1  0
  4  5  4  0
  5  6  1  0
  6  7  4  0
  7  8  4  0
  8  9  4  0
  9 10  1  0
 10 11  1  0
 11 12  4  0
 12 13  4  0
 13 14  4  0
 14 15  1  0
 15 16  1  0
 16 17  1  0
 16 18  1  0
 16 19  1  0
 14 20  4  0
 20 21  4  0
  9 22  4  0
  5 23  4  0
 23 24  4  0
 24 25  4  0
 25 26  4  0
 26 27  4  0
 27 28  4  0
 28 29  4  0
 29 30  4  0
 30 31  2  0
 21 11  4  0
 22  6  4  0
 29 24  4  0
 30  4  4  0
M  END
>  <SMILES>  (4) 
CC(C)c4c(c2cnn(Cc1ccc(OC(F)(F)F)cc1)c2)[nH]c3ccccc3c4=O

>  <NumConformers>  (4) 
34

>  <EnergyUnits>  (4) 
RDKit_forcefield

>  <Processing_Time>  (4) 
90.2s

>  <Original_Conformers>  (4) 
500

>  <Total_Conformers>  (4) 
34

>  <Energy>  (4) 
95.083278465704538

>  <Energy_Unit>  (4) 
RDKit_forcefield

>  <Rank>  (4) 
4

>  <Conformer_Index>  (4) 
3

$$$$
WDH-2G-6
     RDKit          3D

 31 34  0  0  0  0  0  0  0  0999 V2000
   -1.0315   -1.9237   -3.2165 C   0  0  0  0  0  0  0  0  0  0  0  0
   -1.5717   -0.4977   -3.0482 C   0  0  0  0  0  0  0  0  0  0  0  0
   -2.4923   -0.1057   -4.2140 C   0  0  0  0  0  0  0  0  0  0  0  0
   -2.2492   -0.3077   -1.6842 C   0  0  0  0  0  0  0  0  0  0  0  0
   -1.7049    0.5652   -0.6997 C   0  0  0  0  0  0  0  0  0  0  0  0
   -0.3875    1.2191   -0.8590 C   0  0  0  0  0  0  0  0  0  0  0  0
   -0.0866    2.5469   -0.6154 C   0  0  0  0  0  0  0  0  0  0  0  0
    1.2432    2.7301   -0.7337 N   0  0  0  0  0  0  0  0  0  0  0  0
    1.7823    1.5600   -1.0403 N   0  0  0  0  0  0  0  0  0  0  0  0
    3.2180    1.3344   -1.1620 C   0  0  0  0  0  0  0  0  0  0  0  0
    3.7874    0.9417    0.1725 C   0  0  0  0  0  0  0  0  0  0  0  0
    4.2069    1.9258    1.0795 C   0  0  0  0  0  0  0  0  0  0  0  0
    4.6966    1.5622    2.3370 C   0  0  0  0  0  0  0  0  0  0  0  0
    4.7643    0.2155    2.7137 C   0  0  0  0  0  0  0  0  0  0  0  0
    5.2671   -0.0917    3.9884 O   0  0  0  0  0  0  0  0  0  0  0  0
    5.4061   -1.4058    4.5243 C   0  0  0  0  0  0  0  0  0  0  0  0
    5.9418   -1.3176    5.7947 F   0  0  0  0  0  0  0  0  0  0  0  0
    4.1698   -2.0215    4.6032 F   0  0  0  0  0  0  0  0  0  0  0  0
    6.2574   -2.1562    3.7329 F   0  0  0  0  0  0  0  0  0  0  0  0
    4.3273   -0.7717    1.8088 C   0  0  0  0  0  0  0  0  0  0  0  0
    3.8384   -0.4082    0.5505 C   0  0  0  0  0  0  0  0  0  0  0  0
    0.8283    0.6125   -1.1005 C   0  0  0  0  0  0  0  0  0  0  0  0
   -2.3935    0.8072    0.4536 N   0  0  0  0  0  0  0  0  0  0  0  0
   -3.5774    0.2002    0.7373 C   0  0  0  0  0  0  0  0  0  0  0  0
   -4.2393    0.4715    1.9468 C   0  0  0  0  0  0  0  0  0  0  0  0
   -5.4463   -0.1629    2.2478 C   0  0  0  0  0  0  0  0  0  0  0  0
   -6.0020   -1.0729    1.3475 C   0  0  0  0  0  0  0  0  0  0  0  0
   -5.3545   -1.3515    0.1412 C   0  0  0  0  0  0  0  0  0  0  0  0
   -4.1362   -0.7170   -0.1763 C   0  0  0  0  0  0  0  0  0  0  0  0
   -3.4658   -0.9703   -1.3854 C   0  0  0  0  0  0  0  0  0  0  0  0
   -3.9586   -1.7937   -2.2044 O   0  0  0  0  0  0  0  0  0  0  0  0
  1  2  1  0
  2  3  1  0
  2  4  1  0
  4  5  4  0
  5  6  1  0
  6  7  4  0
  7  8  4  0
  8  9  4  0
  9 10  1  0
 10 11  1  0
 11 12  4  0
 12 13  4  0
 13 14  4  0
 14 15  1  0
 15 16  1  0
 16 17  1  0
 16 18  1  0
 16 19  1  0
 14 20  4  0
 20 21  4  0
  9 22  4  0
  5 23  4  0
 23 24  4  0
 24 25  4  0
 25 26  4  0
 26 27  4  0
 27 28  4  0
 28 29  4  0
 29 30  4  0
 30 31  2  0
 21 11  4  0
 22  6  4  0
 29 24  4  0
 30  4  4  0
M  END
>  <SMILES>  (5) 
CC(C)c4c(c2cnn(Cc1ccc(OC(F)(F)F)cc1)c2)[nH]c3ccccc3c4=O

>  <NumConformers>  (5) 
34

>  <EnergyUnits>  (5) 
RDKit_forcefield

>  <Processing_Time>  (5) 
90.2s

>  <Original_Conformers>  (5) 
500

>  <Total_Conformers>  (5) 
34

>  <Energy>  (5) 
95.588877983864464

>  <Energy_Unit>  (5) 
RDKit_forcefield

>  <Rank>  (5) 
5

>  <Conformer_Index>  (5) 
4

$$$$
WDH-2G-6
     RDKit          3D

 31 34  0  0  0  0  0  0  0  0999 V2000
   -1.4556    1.9430   -3.0563 C   0  0  0  0  0  0  0  0  0  0  0  0
   -1.6779    0.4259   -3.0101 C   0  0  0  0  0  0  0  0  0  0  0  0
   -2.5027   -0.0569   -4.2130 C   0  0  0  0  0  0  0  0  0  0  0  0
   -2.2889   -0.0155   -1.6731 C   0  0  0  0  0  0  0  0  0  0  0  0
   -1.5644   -0.8321   -0.7590 C   0  0  0  0  0  0  0  0  0  0  0  0
   -0.1395   -1.1763   -0.9585 C   0  0  0  0  0  0  0  0  0  0  0  0
    0.4378   -2.4260   -0.8245 C   0  0  0  0  0  0  0  0  0  0  0  0
    1.7749   -2.3134   -0.9483 N   0  0  0  0  0  0  0  0  0  0  0  0
    2.0513   -1.0344   -1.1517 N   0  0  0  0  0  0  0  0  0  0  0  0
    3.4056   -0.5016   -1.2475 C   0  0  0  0  0  0  0  0  0  0  0  0
    3.9082   -0.1363    0.1212 C   0  0  0  0  0  0  0  0  0  0  0  0
    4.5702   -1.0888    0.9094 C   0  0  0  0  0  0  0  0  0  0  0  0
    5.0014   -0.7603    2.1977 C   0  0  0  0  0  0  0  0  0  0  0  0
    4.7688    0.5161    2.7239 C   0  0  0  0  0  0  0  0  0  0  0  0
    5.2256    0.7908    4.0231 O   0  0  0  0  0  0  0  0  0  0  0  0
    5.0705    2.0334    4.7053 C   0  0  0  0  0  0  0  0  0  0  0  0
    3.7277    2.3301    4.8560 F   0  0  0  0  0  0  0  0  0  0  0  0
    5.6475    1.9327    5.9565 F   0  0  0  0  0  0  0  0  0  0  0  0
    5.7016    3.0448    4.0034 F   0  0  0  0  0  0  0  0  0  0  0  0
    4.0887    1.4672    1.9383 C   0  0  0  0  0  0  0  0  0  0  0  0
    3.6581    1.1390    0.6492 C   0  0  0  0  0  0  0  0  0  0  0  0
    0.9181   -0.3084   -1.1390 C   0  0  0  0  0  0  0  0  0  0  0  0
   -2.1774   -1.3103    0.3627 N   0  0  0  0  0  0  0  0  0  0  0  0
   -3.4615   -0.9949    0.6829 C   0  0  0  0  0  0  0  0  0  0  0  0
   -4.0424   -1.5021    1.8576 C   0  0  0  0  0  0  0  0  0  0  0  0
   -5.3550   -1.1672    2.1965 C   0  0  0  0  0  0  0  0  0  0  0  0
   -6.0978   -0.3238    1.3694 C   0  0  0  0  0  0  0  0  0  0  0  0
   -5.5323    0.1874    0.1985 C   0  0  0  0  0  0  0  0  0  0  0  0
   -4.2089   -0.1440   -0.1569 C   0  0  0  0  0  0  0  0  0  0  0  0
   -3.6160    0.3469   -1.3330 C   0  0  0  0  0  0  0  0  0  0  0  0
   -4.2779    1.1136   -2.0851 O   0  0  0  0  0  0  0  0  0  0  0  0
  1  2  1  0
  2  3  1  0
  2  4  1  0
  4  5  4  0
  5  6  1  0
  6  7  4  0
  7  8  4  0
  8  9  4  0
  9 10  1  0
 10 11  1  0
 11 12  4  0
 12 13  4  0
 13 14  4  0
 14 15  1  0
 15 16  1  0
 16 17  1  0
 16 18  1  0
 16 19  1  0
 14 20  4  0
 20 21  4  0
  9 22  4  0
  5 23  4  0
 23 24  4  0
 24 25  4  0
 25 26  4  0
 26 27  4  0
 27 28  4  0
 28 29  4  0
 29 30  4  0
 30 31  2  0
 21 11  4  0
 22  6  4  0
 29 24  4  0
 30  4  4  0
M  END
>  <SMILES>  (6) 
CC(C)c4c(c2cnn(Cc1ccc(OC(F)(F)F)cc1)c2)[nH]c3ccccc3c4=O

>  <NumConformers>  (6) 
34

>  <EnergyUnits>  (6) 
RDKit_forcefield

>  <Processing_Time>  (6) 
90.2s

>  <Original_Conformers>  (6) 
500

>  <Total_Conformers>  (6) 
34

>  <Energy>  (6) 
95.592278825655896

>  <Energy_Unit>  (6) 
RDKit_forcefield

>  <Rank>  (6) 
6

>  <Conformer_Index>  (6) 
5

$$$$
WDH-2G-6
     RDKit          3D

 31 34  0  0  0  0  0  0  0  0999 V2000
   -2.6085    0.4221   -4.2139 C   0  0  0  0  0  0  0  0  0  0  0  0
   -1.7016   -0.2248   -3.1567 C   0  0  0  0  0  0  0  0  0  0  0  0
   -1.2751   -1.6383   -3.5719 C   0  0  0  0  0  0  0  0  0  0  0  0
   -2.3410   -0.2130   -1.7612 C   0  0  0  0  0  0  0  0  0  0  0  0
   -1.7282    0.4648   -0.6694 C   0  0  0  0  0  0  0  0  0  0  0  0
   -0.3808    1.0667   -0.7650 C   0  0  0  0  0  0  0  0  0  0  0  0
   -0.0052    2.3289   -0.3419 C   0  0  0  0  0  0  0  0  0  0  0  0
    1.3305    2.4587   -0.4639 N   0  0  0  0  0  0  0  0  0  0  0  0
    1.8011    1.3184   -0.9471 N   0  0  0  0  0  0  0  0  0  0  0  0
    3.2212    1.0374   -1.1241 C   0  0  0  0  0  0  0  0  0  0  0  0
    3.8020    0.5247    0.1639 C   0  0  0  0  0  0  0  0  0  0  0  0
    4.3124    1.4209    1.1148 C   0  0  0  0  0  0  0  0  0  0  0  0
    4.8057    0.9506    2.3353 C   0  0  0  0  0  0  0  0  0  0  0  0
    4.7826   -0.4272    2.6278 C   0  0  0  0  0  0  0  0  0  0  0  0
    5.2610   -0.9546    3.8385 O   0  0  0  0  0  0  0  0  0  0  0  0
    5.8203   -0.1907    4.9052 C   0  0  0  0  0  0  0  0  0  0  0  0
    6.9522    0.4753    4.4703 F   0  0  0  0  0  0  0  0  0  0  0  0
    4.8910    0.7176    5.3804 F   0  0  0  0  0  0  0  0  0  0  0  0
    6.1732   -1.0453    5.9319 F   0  0  0  0  0  0  0  0  0  0  0  0
    4.2593   -1.3156    1.6807 C   0  0  0  0  0  0  0  0  0  0  0  0
    3.7668   -0.8457    0.4600 C   0  0  0  0  0  0  0  0  0  0  0  0
    0.7964    0.4389   -1.1183 C   0  0  0  0  0  0  0  0  0  0  0  0
   -2.3775    0.5588    0.5275 N   0  0  0  0  0  0  0  0  0  0  0  0
   -3.5877   -0.0222    0.7483 C   0  0  0  0  0  0  0  0  0  0  0  0
   -4.2069    0.0884    2.0053 C   0  0  0  0  0  0  0  0  0  0  0  0
   -5.4419   -0.5197    2.2390 C   0  0  0  0  0  0  0  0  0  0  0  0
   -6.0685   -1.2432    1.2237 C   0  0  0  0  0  0  0  0  0  0  0  0
   -5.4639   -1.3614   -0.0306 C   0  0  0  0  0  0  0  0  0  0  0  0
   -4.2178   -0.7514   -0.2810 C   0  0  0  0  0  0  0  0  0  0  0  0
   -3.5890   -0.8452   -1.5348 C   0  0  0  0  0  0  0  0  0  0  0  0
   -4.1479   -1.4977   -2.4589 O   0  0  0  0  0  0  0  0  0  0  0  0
  1  2  1  0
  2  3  1  0
  2  4  1  0
  4  5  4  0
  5  6  1  0
  6  7  4  0
  7  8  4  0
  8  9  4  0
  9 10  1  0
 10 11  1  0
 11 12  4  0
 12 13  4  0
 13 14  4  0
 14 15  1  0
 15 16  1  0
 16 17  1  0
 16 18  1  0
 16 19  1  0
 14 20  4  0
 20 21  4  0
  9 22  4  0
  5 23  4  0
 23 24  4  0
 24 25  4  0
 25 26  4  0
 26 27  4  0
 27 28  4  0
 28 29  4  0
 29 30  4  0
 30 31  2  0
 21 11  4  0
 22  6  4  0
 29 24  4  0
 30  4  4  0
M  END
>  <SMILES>  (7) 
CC(C)c4c(c2cnn(Cc1ccc(OC(F)(F)F)cc1)c2)[nH]c3ccccc3c4=O

>  <NumConformers>  (7) 
34

>  <EnergyUnits>  (7) 
RDKit_forcefield

>  <Processing_Time>  (7) 
90.2s

>  <Original_Conformers>  (7) 
500

>  <Total_Conformers>  (7) 
34

>  <Energy>  (7) 
95.636957429966813

>  <Energy_Unit>  (7) 
RDKit_forcefield

>  <Rank>  (7) 
7

>  <Conformer_Index>  (7) 
6

$$$$
WDH-2G-6
     RDKit          3D

 31 34  0  0  0  0  0  0  0  0999 V2000
   -2.7172    1.6442   -3.8225 C   0  0  0  0  0  0  0  0  0  0  0  0
   -2.1447    0.2808   -3.4147 C   0  0  0  0  0  0  0  0  0  0  0  0
   -2.6192   -0.8326   -4.3607 C   0  0  0  0  0  0  0  0  0  0  0  0
   -2.4444   -0.0416   -1.9445 C   0  0  0  0  0  0  0  0  0  0  0  0
   -1.4026   -0.1436   -0.9796 C   0  0  0  0  0  0  0  0  0  0  0  0
    0.0028    0.1980   -1.2890 C   0  0  0  0  0  0  0  0  0  0  0  0
    0.4921    1.3956   -1.7823 C   0  0  0  0  0  0  0  0  0  0  0  0
    1.8390    1.3581   -1.7814 N   0  0  0  0  0  0  0  0  0  0  0  0
    2.2059    0.1786   -1.3042 N   0  0  0  0  0  0  0  0  0  0  0  0
    3.5927   -0.2048   -1.0655 C   0  0  0  0  0  0  0  0  0  0  0  0
    3.9879    0.1606    0.3381 C   0  0  0  0  0  0  0  0  0  0  0  0
    3.8042   -0.7538    1.3859 C   0  0  0  0  0  0  0  0  0  0  0  0
    4.1294   -0.3993    2.6987 C   0  0  0  0  0  0  0  0  0  0  0  0
    4.6338    0.8847    2.9835 C   0  0  0  0  0  0  0  0  0  0  0  0
    4.9769    1.2952    4.2819 O   0  0  0  0  0  0  0  0  0  0  0  0
    4.8695    0.4920    5.4553 C   0  0  0  0  0  0  0  0  0  0  0  0
    5.2994    1.2276    6.5427 F   0  0  0  0  0  0  0  0  0  0  0  0
    3.5525    0.1211    5.6605 F   0  0  0  0  0  0  0  0  0  0  0  0
    5.6640   -0.6343    5.3367 F   0  0  0  0  0  0  0  0  0  0  0  0
    4.8009    1.7984    1.9360 C   0  0  0  0  0  0  0  0  0  0  0  0
    4.4758    1.4440    0.6236 C   0  0  0  0  0  0  0  0  0  0  0  0
    1.1202   -0.5437   -0.9704 C   0  0  0  0  0  0  0  0  0  0  0  0
   -1.6866   -0.5514    0.2915 N   0  0  0  0  0  0  0  0  0  0  0  0
   -2.9541   -0.8232    0.7041 C   0  0  0  0  0  0  0  0  0  0  0  0
   -3.1956   -1.2259    2.0286 C   0  0  0  0  0  0  0  0  0  0  0  0
   -4.4974   -1.4909    2.4587 C   0  0  0  0  0  0  0  0  0  0  0  0
   -5.5679   -1.3552    1.5739 C   0  0  0  0  0  0  0  0  0  0  0  0
   -5.3418   -0.9556    0.2543 C   0  0  0  0  0  0  0  0  0  0  0  0
   -4.0325   -0.6864   -0.1939 C   0  0  0  0  0  0  0  0  0  0  0  0
   -3.7724   -0.2916   -1.5176 C   0  0  0  0  0  0  0  0  0  0  0  0
   -4.7339   -0.1629   -2.3243 O   0  0  0  0  0  0  0  0  0  0  0  0
  1  2  1  0
  2  3  1  0
  2  4  1  0
  4  5  4  0
  5  6  1  0
  6  7  4  0
  7  8  4  0
  8  9  4  0
  9 10  1  0
 10 11  1  0
 11 12  4  0
 12 13  4  0
 13 14  4  0
 14 15  1  0
 15 16  1  0
 16 17  1  0
 16 18  1  0
 16 19  1  0
 14 20  4  0
 20 21  4  0
  9 22  4  0
  5 23  4  0
 23 24  4  0
 24 25  4  0
 25 26  4  0
 26 27  4  0
 27 28  4  0
 28 29  4  0
 29 30  4  0
 30 31  2  0
 21 11  4  0
 22  6  4  0
 29 24  4  0
 30  4  4  0
M  END
>  <SMILES>  (8) 
CC(C)c4c(c2cnn(Cc1ccc(OC(F)(F)F)cc1)c2)[nH]c3ccccc3c4=O

>  <NumConformers>  (8) 
34

>  <EnergyUnits>  (8) 
RDKit_forcefield

>  <Processing_Time>  (8) 
90.2s

>  <Original_Conformers>  (8) 
500

>  <Total_Conformers>  (8) 
34

>  <Energy>  (8) 
95.679110057569218

>  <Energy_Unit>  (8) 
RDKit_forcefield

>  <Rank>  (8) 
8

>  <Conformer_Index>  (8) 
7

$$$$
WDH-2G-6
     RDKit          3D

 31 34  0  0  0  0  0  0  0  0999 V2000
   -2.2698   -1.3706   -4.2084 C   0  0  0  0  0  0  0  0  0  0  0  0
   -2.0969   -0.0443   -3.4573 C   0  0  0  0  0  0  0  0  0  0  0  0
   -2.9031    1.0840   -4.1183 C   0  0  0  0  0  0  0  0  0  0  0  0
   -2.4239   -0.1925   -1.9652 C   0  0  0  0  0  0  0  0  0  0  0  0
   -1.4207   -0.0389   -0.9667 C   0  0  0  0  0  0  0  0  0  0  0  0
    0.0118    0.1207   -1.2982 C   0  0  0  0  0  0  0  0  0  0  0  0
    0.8043   -0.7291   -2.0511 C   0  0  0  0  0  0  0  0  0  0  0  0
    2.0838   -0.3108   -1.9915 N   0  0  0  0  0  0  0  0  0  0  0  0
    2.1159    0.7701   -1.2271 N   0  0  0  0  0  0  0  0  0  0  0  0
    3.3433    1.4628   -0.8519 C   0  0  0  0  0  0  0  0  0  0  0  0
    3.8763    0.8953    0.4341 C   0  0  0  0  0  0  0  0  0  0  0  0
    4.7163   -0.2277    0.4166 C   0  0  0  0  0  0  0  0  0  0  0  0
    5.1777   -0.7810    1.6144 C   0  0  0  0  0  0  0  0  0  0  0  0
    4.8010   -0.2312    2.8457 C   0  0  0  0  0  0  0  0  0  0  0  0
    5.2971   -0.8263    4.0171 O   0  0  0  0  0  0  0  0  0  0  0  0
    5.0184   -0.3883    5.3453 C   0  0  0  0  0  0  0  0  0  0  0  0
    5.4586    0.9118    5.5201 F   0  0  0  0  0  0  0  0  0  0  0  0
    5.6844   -1.2069    6.2365 F   0  0  0  0  0  0  0  0  0  0  0  0
    3.6603   -0.4655    5.5980 F   0  0  0  0  0  0  0  0  0  0  0  0
    3.9441    0.8867    2.8633 C   0  0  0  0  0  0  0  0  0  0  0  0
    3.4821    1.4400    1.6653 C   0  0  0  0  0  0  0  0  0  0  0  0
    0.8819    1.0485   -0.7669 C   0  0  0  0  0  0  0  0  0  0  0  0
   -1.7639   -0.0546    0.3542 N   0  0  0  0  0  0  0  0  0  0  0  0
   -3.0407   -0.2656    0.7734 C   0  0  0  0  0  0  0  0  0  0  0  0
   -3.3398   -0.2874    2.1463 C   0  0  0  0  0  0  0  0  0  0  0  0
   -4.6469   -0.5192    2.5795 C   0  0  0  0  0  0  0  0  0  0  0  0
   -5.6650   -0.7321    1.6493 C   0  0  0  0  0  0  0  0  0  0  0  0
   -5.3815   -0.7127    0.2814 C   0  0  0  0  0  0  0  0  0  0  0  0
   -4.0666   -0.4785   -0.1702 C   0  0  0  0  0  0  0  0  0  0  0  0
   -3.7520   -0.4443   -1.5398 C   0  0  0  0  0  0  0  0  0  0  0  0
   -4.6649   -0.6388   -2.3886 O   0  0  0  0  0  0  0  0  0  0  0  0
  1  2  1  0
  2  3  1  0
  2  4  1  0
  4  5  4  0
  5  6  1  0
  6  7  4  0
  7  8  4  0
  8  9  4  0
  9 10  1  0
 10 11  1  0
 11 12  4  0
 12 13  4  0
 13 14  4  0
 14 15  1  0
 15 16  1  0
 16 17  1  0
 16 18  1  0
 16 19  1  0
 14 20  4  0
 20 21  4  0
  9 22  4  0
  5 23  4  0
 23 24  4  0
 24 25  4  0
 25 26  4  0
 26 27  4  0
 27 28  4  0
 28 29  4  0
 29 30  4  0
 30 31  2  0
 21 11  4  0
 22  6  4  0
 29 24  4  0
 30  4  4  0
M  END
>  <SMILES>  (9) 
CC(C)c4c(c2cnn(Cc1ccc(OC(F)(F)F)cc1)c2)[nH]c3ccccc3c4=O

>  <NumConformers>  (9) 
34

>  <EnergyUnits>  (9) 
RDKit_forcefield

>  <Processing_Time>  (9) 
90.2s

>  <Original_Conformers>  (9) 
500

>  <Total_Conformers>  (9) 
34

>  <Energy>  (9) 
95.68096745411421

>  <Energy_Unit>  (9) 
RDKit_forcefield

>  <Rank>  (9) 
9

>  <Conformer_Index>  (9) 
8

$$$$
WDH-2G-6
     RDKit          3D

 31 34  0  0  0  0  0  0  0  0999 V2000
   -2.1160   -1.6391   -4.0773 C   0  0  0  0  0  0  0  0  0  0  0  0
   -2.0194   -0.2434   -3.4484 C   0  0  0  0  0  0  0  0  0  0  0  0
   -2.8153    0.7924   -4.2567 C   0  0  0  0  0  0  0  0  0  0  0  0
   -2.4264   -0.2603   -1.9688 C   0  0  0  0  0  0  0  0  0  0  0  0
   -1.4863    0.0195   -0.9366 C   0  0  0  0  0  0  0  0  0  0  0  0
   -0.0413    0.1909   -1.2028 C   0  0  0  0  0  0  0  0  0  0  0  0
    0.8130   -0.6974   -1.8342 C   0  0  0  0  0  0  0  0  0  0  0  0
    2.0767   -0.2394   -1.7414 N   0  0  0  0  0  0  0  0  0  0  0  0
    2.0399    0.9035   -1.0733 N   0  0  0  0  0  0  0  0  0  0  0  0
    3.2280    1.6568   -0.6886 C   0  0  0  0  0  0  0  0  0  0  0  0
    3.7144    1.1886    0.6544 C   0  0  0  0  0  0  0  0  0  0  0  0
    3.2439    1.7948    1.8285 C   0  0  0  0  0  0  0  0  0  0  0  0
    3.6592    1.3269    3.0782 C   0  0  0  0  0  0  0  0  0  0  0  0
    4.5386    0.2419    3.1772 C   0  0  0  0  0  0  0  0  0  0  0  0
    4.9210   -0.1867    4.4586 O   0  0  0  0  0  0  0  0  0  0  0  0
    5.7980   -1.2768    4.7349 C   0  0  0  0  0  0  0  0  0  0  0  0
    5.9401   -1.4022    6.1034 F   0  0  0  0  0  0  0  0  0  0  0  0
    7.0423   -1.0412    4.1776 F   0  0  0  0  0  0  0  0  0  0  0  0
    5.2702   -2.4526    4.2316 F   0  0  0  0  0  0  0  0  0  0  0  0
    4.9991   -0.3762    1.9982 C   0  0  0  0  0  0  0  0  0  0  0  0
    4.5839    0.0921    0.7480 C   0  0  0  0  0  0  0  0  0  0  0  0
    0.7754    1.1849   -0.7071 C   0  0  0  0  0  0  0  0  0  0  0  0
   -1.9046    0.1197    0.3587 N   0  0  0  0  0  0  0  0  0  0  0  0
   -3.1975   -0.0901    0.7260 C   0  0  0  0  0  0  0  0  0  0  0  0
   -3.5746    0.0113    2.0760 C   0  0  0  0  0  0  0  0  0  0  0  0
   -4.8979   -0.2187    2.4575 C   0  0  0  0  0  0  0  0  0  0  0  0
   -5.8548   -0.5530    1.4981 C   0  0  0  0  0  0  0  0  0  0  0  0
   -5.4933   -0.6570    0.1525 C   0  0  0  0  0  0  0  0  0  0  0  0
   -4.1613   -0.4253   -0.2470 C   0  0  0  0  0  0  0  0  0  0  0  0
   -3.7695   -0.5125   -1.5941 C   0  0  0  0  0  0  0  0  0  0  0  0
   -4.6268   -0.8164   -2.4685 O   0  0  0  0  0  0  0  0  0  0  0  0
  1  2  1  0
  2  3  1  0
  2  4  1  0
  4  5  4  0
  5  6  1  0
  6  7  4  0
  7  8  4  0
  8  9  4  0
  9 10  1  0
 10 11  1  0
 11 12  4  0
 12 13  4  0
 13 14  4  0
 14 15  1  0
 15 16  1  0
 16 17  1  0
 16 18  1  0
 16 19  1  0
 14 20  4  0
 20 21  4  0
  9 22  4  0
  5 23  4  0
 23 24  4  0
 24 25  4  0
 25 26  4  0
 26 27  4  0
 27 28  4  0
 28 29  4  0
 29 30  4  0
 30 31  2  0
 21 11  4  0
 22  6  4  0
 29 24  4  0
 30  4  4  0
M  END
>  <SMILES>  (10) 
CC(C)c4c(c2cnn(Cc1ccc(OC(F)(F)F)cc1)c2)[nH]c3ccccc3c4=O

>  <NumConformers>  (10) 
34

>  <EnergyUnits>  (10) 
RDKit_forcefield

>  <Processing_Time>  (10) 
90.2s

>  <Original_Conformers>  (10) 
500

>  <Total_Conformers>  (10) 
34

>  <Energy>  (10) 
95.69205376930509

>  <Energy_Unit>  (10) 
RDKit_forcefield

>  <Rank>  (10) 
10

>  <Conformer_Index>  (10) 
9

$$$$
WDH-2G-6
     RDKit          3D

 31 34  0  0  0  0  0  0  0  0999 V2000
   -0.6041   -0.2764   -3.0810 C   0  0  0  0  0  0  0  0  0  0  0  0
   -0.9177   -0.9671   -1.7467 C   0  0  0  0  0  0  0  0  0  0  0  0
   -0.9402   -2.4959   -1.9013 C   0  0  0  0  0  0  0  0  0  0  0  0
   -2.2107   -0.4262   -1.1190 C   0  0  0  0  0  0  0  0  0  0  0  0
   -2.1946    0.3065    0.1029 C   0  0  0  0  0  0  0  0  0  0  0  0
   -0.9385    0.7442    0.7516 C   0  0  0  0  0  0  0  0  0  0  0  0
   -0.6170    0.6437    2.0937 C   0  0  0  0  0  0  0  0  0  0  0  0
    0.5726    1.2384    2.3118 N   0  0  0  0  0  0  0  0  0  0  0  0
    0.9911    1.7297    1.1549 N   0  0  0  0  0  0  0  0  0  0  0  0
    2.2729    2.4016    0.9714 C   0  0  0  0  0  0  0  0  0  0  0  0
    3.3852    1.3890    0.9528 C   0  0  0  0  0  0  0  0  0  0  0  0
    4.3151    1.3299    2.0019 C   0  0  0  0  0  0  0  0  0  0  0  0
    5.3412    0.3804    1.9844 C   0  0  0  0  0  0  0  0  0  0  0  0
    5.4477   -0.5322    0.9165 C   0  0  0  0  0  0  0  0  0  0  0  0
    6.4587   -1.5047    0.8468 O   0  0  0  0  0  0  0  0  0  0  0  0
    7.4976   -1.6834    1.8078 C   0  0  0  0  0  0  0  0  0  0  0  0
    6.9570   -1.9986    3.0423 F   0  0  0  0  0  0  0  0  0  0  0  0
    8.2590   -0.5324    1.9063 F   0  0  0  0  0  0  0  0  0  0  0  0
    8.3121   -2.7227    1.4018 F   0  0  0  0  0  0  0  0  0  0  0  0
    4.5108   -0.4762   -0.1228 C   0  0  0  0  0  0  0  0  0  0  0  0
    3.4882    0.4767   -0.1084 C   0  0  0  0  0  0  0  0  0  0  0  0
    0.0974    1.4588    0.1860 C   0  0  0  0  0  0  0  0  0  0  0  0
   -3.3690    0.6585    0.7026 N   0  0  0  0  0  0  0  0  0  0  0  0
   -4.5812    0.3885    0.1468 C   0  0  0  0  0  0  0  0  0  0  0  0
   -5.7616    0.7891    0.7965 C   0  0  0  0  0  0  0  0  0  0  0  0
   -7.0065    0.5343    0.2172 C   0  0  0  0  0  0  0  0  0  0  0  0
   -7.0850   -0.1190   -1.0140 C   0  0  0  0  0  0  0  0  0  0  0  0
   -5.9194   -0.5240   -1.6700 C   0  0  0  0  0  0  0  0  0  0  0  0
   -4.6560   -0.2763   -1.0950 C   0  0  0  0  0  0  0  0  0  0  0  0
   -3.4662   -0.6787   -1.7262 C   0  0  0  0  0  0  0  0  0  0  0  0
   -3.5263   -1.2664   -2.8411 O   0  0  0  0  0  0  0  0  0  0  0  0
  1  2  1  0
  2  3  1  0
  2  4  1  0
  4  5  4  0
  5  6  1  0
  6  7  4  0
  7  8  4  0
  8  9  4  0
  9 10  1  0
 10 11  1  0
 11 12  4  0
 12 13  4  0
 13 14  4  0
 14 15  1  0
 15 16  1  0
 16 17  1  0
 16 18  1  0
 16 19  1  0
 14 20  4  0
 20 21  4  0
  9 22  4  0
  5 23  4  0
 23 24  4  0
 24 25  4  0
 25 26  4  0
 26 27  4  0
 27 28  4  0
 28 29  4  0
 29 30  4  0
 30 31  2  0
 21 11  4  0
 22  6  4  0
 29 24  4  0
 30  4  4  0
M  END
>  <SMILES>  (11) 
CC(C)c4c(c2cnn(Cc1ccc(OC(F)(F)F)cc1)c2)[nH]c3ccccc3c4=O

>  <NumConformers>  (11) 
34

>  <EnergyUnits>  (11) 
RDKit_forcefield

>  <Processing_Time>  (11) 
90.2s

>  <Original_Conformers>  (11) 
500

>  <Total_Conformers>  (11) 
34

>  <Energy>  (11) 
95.71711911646824

>  <Energy_Unit>  (11) 
RDKit_forcefield

>  <Rank>  (11) 
11

>  <Conformer_Index>  (11) 
10

$$$$
WDH-2G-6
     RDKit          3D

 31 34  0  0  0  0  0  0  0  0999 V2000
   -0.3521   -0.4659   -2.8788 C   0  0  0  0  0  0  0  0  0  0  0  0
   -0.7505   -1.0463   -1.5144 C   0  0  0  0  0  0  0  0  0  0  0  0
   -0.7612   -2.5824   -1.5408 C   0  0  0  0  0  0  0  0  0  0  0  0
   -2.0840   -0.4686   -1.0188 C   0  0  0  0  0  0  0  0  0  0  0  0
   -2.1533    0.3487    0.1461 C   0  0  0  0  0  0  0  0  0  0  0  0
   -0.9455    0.8361    0.8471 C   0  0  0  0  0  0  0  0  0  0  0  0
   -0.7084    0.8123    2.2096 C   0  0  0  0  0  0  0  0  0  0  0  0
    0.4558    1.4410    2.4688 N   0  0  0  0  0  0  0  0  0  0  0  0
    0.9394    1.8769    1.3155 N   0  0  0  0  0  0  0  0  0  0  0  0
    2.2099    2.5820    1.1789 C   0  0  0  0  0  0  0  0  0  0  0  0
    3.3528    1.6059    1.2541 C   0  0  0  0  0  0  0  0  0  0  0  0
    3.5231    0.6427    0.2481 C   0  0  0  0  0  0  0  0  0  0  0  0
    4.5839   -0.2659    0.3106 C   0  0  0  0  0  0  0  0  0  0  0  0
    5.4972   -0.2197    1.3819 C   0  0  0  0  0  0  0  0  0  0  0  0
    6.5885   -1.0980    1.4883 O   0  0  0  0  0  0  0  0  0  0  0  0
    6.8885   -2.1496    0.5733 C   0  0  0  0  0  0  0  0  0  0  0  0
    8.0190   -2.8153    1.0090 F   0  0  0  0  0  0  0  0  0  0  0  0
    5.8354   -3.0463    0.5175 F   0  0  0  0  0  0  0  0  0  0  0  0
    7.1364   -1.6298   -0.6840 F   0  0  0  0  0  0  0  0  0  0  0  0
    5.3207    0.7406    2.3852 C   0  0  0  0  0  0  0  0  0  0  0  0
    4.2553    1.6438    2.3303 C   0  0  0  0  0  0  0  0  0  0  0  0
    0.1136    1.5368    0.3088 C   0  0  0  0  0  0  0  0  0  0  0  0
   -3.3664    0.7334    0.6393 N   0  0  0  0  0  0  0  0  0  0  0  0
   -4.5377    0.4114    0.0261 C   0  0  0  0  0  0  0  0  0  0  0  0
   -5.7602    0.8460    0.5651 C   0  0  0  0  0  0  0  0  0  0  0  0
   -6.9635    0.5294   -0.0695 C   0  0  0  0  0  0  0  0  0  0  0  0
   -6.9579   -0.2193   -1.2471 C   0  0  0  0  0  0  0  0  0  0  0  0
   -5.7494   -0.6570   -1.7946 C   0  0  0  0  0  0  0  0  0  0  0  0
   -4.5272   -0.3470   -1.1629 C   0  0  0  0  0  0  0  0  0  0  0  0
   -3.2957   -0.7813   -1.6844 C   0  0  0  0  0  0  0  0  0  0  0  0
   -3.2789   -1.4537   -2.7523 O   0  0  0  0  0  0  0  0  0  0  0  0
  1  2  1  0
  2  3  1  0
  2  4  1  0
  4  5  4  0
  5  6  1  0
  6  7  4  0
  7  8  4  0
  8  9  4  0
  9 10  1  0
 10 11  1  0
 11 12  4  0
 12 13  4  0
 13 14  4  0
 14 15  1  0
 15 16  1  0
 16 17  1  0
 16 18  1  0
 16 19  1  0
 14 20  4  0
 20 21  4  0
  9 22  4  0
  5 23  4  0
 23 24  4  0
 24 25  4  0
 25 26  4  0
 26 27  4  0
 27 28  4  0
 28 29  4  0
 29 30  4  0
 30 31  2  0
 21 11  4  0
 22  6  4  0
 29 24  4  0
 30  4  4  0
M  END
>  <SMILES>  (12) 
CC(C)c4c(c2cnn(Cc1ccc(OC(F)(F)F)cc1)c2)[nH]c3ccccc3c4=O

>  <NumConformers>  (12) 
34

>  <EnergyUnits>  (12) 
RDKit_forcefield

>  <Processing_Time>  (12) 
90.2s

>  <Original_Conformers>  (12) 
500

>  <Total_Conformers>  (12) 
34

>  <Energy>  (12) 
95.718975567156264

>  <Energy_Unit>  (12) 
RDKit_forcefield

>  <Rank>  (12) 
12

>  <Conformer_Index>  (12) 
11

$$$$
WDH-2G-6
     RDKit          3D

 31 34  0  0  0  0  0  0  0  0999 V2000
   -3.0939   -3.4961   -2.1335 C   0  0  0  0  0  0  0  0  0  0  0  0
   -2.1577   -2.3118   -2.4168 C   0  0  0  0  0  0  0  0  0  0  0  0
   -2.1182   -1.9744   -3.9122 C   0  0  0  0  0  0  0  0  0  0  0  0
   -2.5070   -1.0807   -1.5698 C   0  0  0  0  0  0  0  0  0  0  0  0
   -1.5651   -0.5078   -0.6692 C   0  0  0  0  0  0  0  0  0  0  0  0
   -0.1620   -0.9668   -0.5897 C   0  0  0  0  0  0  0  0  0  0  0  0
    0.7682   -1.0272   -1.6134 C   0  0  0  0  0  0  0  0  0  0  0  0
    1.9648   -1.3804   -1.1045 N   0  0  0  0  0  0  0  0  0  0  0  0
    1.8122   -1.5404    0.2012 N   0  0  0  0  0  0  0  0  0  0  0  0
    2.9064   -1.8497    1.1145 C   0  0  0  0  0  0  0  0  0  0  0  0
    3.5643   -0.5788    1.5734 C   0  0  0  0  0  0  0  0  0  0  0  0
    4.6260   -0.0270    0.8414 C   0  0  0  0  0  0  0  0  0  0  0  0
    5.2164    1.1734    1.2474 C   0  0  0  0  0  0  0  0  0  0  0  0
    4.7429    1.8458    2.3908 C   0  0  0  0  0  0  0  0  0  0  0  0
    5.3013    3.0494    2.8496 O   0  0  0  0  0  0  0  0  0  0  0  0
    6.3856    3.7428    2.2354 C   0  0  0  0  0  0  0  0  0  0  0  0
    6.0477    4.1114    0.9463 F   0  0  0  0  0  0  0  0  0  0  0  0
    6.6604    4.8821    2.9660 F   0  0  0  0  0  0  0  0  0  0  0  0
    7.5145    2.9422    2.2165 F   0  0  0  0  0  0  0  0  0  0  0  0
    3.6710    1.2998    3.1070 C   0  0  0  0  0  0  0  0  0  0  0  0
    3.0807    0.1002    2.7010 C   0  0  0  0  0  0  0  0  0  0  0  0
    0.5412   -1.2726    0.5552 C   0  0  0  0  0  0  0  0  0  0  0  0
   -1.9418    0.5129    0.1551 N   0  0  0  0  0  0  0  0  0  0  0  0
   -3.1902    1.0534    0.1235 C   0  0  0  0  0  0  0  0  0  0  0  0
   -3.5247    2.1133    0.9839 C   0  0  0  0  0  0  0  0  0  0  0  0
   -4.8021    2.6754    0.9464 C   0  0  0  0  0  0  0  0  0  0  0  0
   -5.7550    2.1899    0.0505 C   0  0  0  0  0  0  0  0  0  0  0  0
   -5.4354    1.1386   -0.8116 C   0  0  0  0  0  0  0  0  0  0  0  0
   -4.1496    0.5591   -0.7836 C   0  0  0  0  0  0  0  0  0  0  0  0
   -3.8008   -0.5054   -1.6329 C   0  0  0  0  0  0  0  0  0  0  0  0
   -4.6523   -0.9457   -2.4528 O   0  0  0  0  0  0  0  0  0  0  0  0
  1  2  1  0
  2  3  1  0
  2  4  1  0
  4  5  4  0
  5  6  1  0
  6  7  4  0
  7  8  4  0
  8  9  4  0
  9 10  1  0
 10 11  1  0
 11 12  4  0
 12 13  4  0
 13 14  4  0
 14 15  1  0
 15 16  1  0
 16 17  1  0
 16 18  1  0
 16 19  1  0
 14 20  4  0
 20 21  4  0
  9 22  4  0
  5 23  4  0
 23 24  4  0
 24 25  4  0
 25 26  4  0
 26 27  4  0
 27 28  4  0
 28 29  4  0
 29 30  4  0
 30 31  2  0
 21 11  4  0
 22  6  4  0
 29 24  4  0
 30  4  4  0
M  END
>  <SMILES>  (13) 
CC(C)c4c(c2cnn(Cc1ccc(OC(F)(F)F)cc1)c2)[nH]c3ccccc3c4=O

>  <NumConformers>  (13) 
34

>  <EnergyUnits>  (13) 
RDKit_forcefield

>  <Processing_Time>  (13) 
90.2s

>  <Original_Conformers>  (13) 
500

>  <Total_Conformers>  (13) 
34

>  <Energy>  (13) 
95.7227945995933

>  <Energy_Unit>  (13) 
RDKit_forcefield

>  <Rank>  (13) 
13

>  <Conformer_Index>  (13) 
12

$$$$
WDH-2G-6
     RDKit          3D

 31 34  0  0  0  0  0  0  0  0999 V2000
   -0.6905    0.4329   -3.2306 C   0  0  0  0  0  0  0  0  0  0  0  0
   -1.0175   -0.7880   -2.3577 C   0  0  0  0  0  0  0  0  0  0  0  0
   -1.3364   -2.0200   -3.2140 C   0  0  0  0  0  0  0  0  0  0  0  0
   -2.1361   -0.4954   -1.3486 C   0  0  0  0  0  0  0  0  0  0  0  0
   -1.9189   -0.6092    0.0538 C   0  0  0  0  0  0  0  0  0  0  0  0
   -0.6673   -1.1545    0.6213 C   0  0  0  0  0  0  0  0  0  0  0  0
   -0.0881   -2.3863    0.3691 C   0  0  0  0  0  0  0  0  0  0  0  0
    0.9978   -2.5331    1.1533 N   0  0  0  0  0  0  0  0  0  0  0  0
    1.0984   -1.4468    1.9042 N   0  0  0  0  0  0  0  0  0  0  0  0
    2.1908   -1.2039    2.8394 C   0  0  0  0  0  0  0  0  0  0  0  0
    3.3078   -0.4817    2.1393 C   0  0  0  0  0  0  0  0  0  0  0  0
    4.3022   -1.2033    1.4631 C   0  0  0  0  0  0  0  0  0  0  0  0
    5.3147   -0.5308    0.7731 C   0  0  0  0  0  0  0  0  0  0  0  0
    5.3445    0.8684    0.7360 C   0  0  0  0  0  0  0  0  0  0  0  0
    6.3850    1.4905    0.0273 O   0  0  0  0  0  0  0  0  0  0  0  0
    6.5599    2.8988   -0.1120 C   0  0  0  0  0  0  0  0  0  0  0  0
    6.7256    3.4842    1.1306 F   0  0  0  0  0  0  0  0  0  0  0  0
    7.6894    3.1373   -0.8707 F   0  0  0  0  0  0  0  0  0  0  0  0
    5.4668    3.4539   -0.7528 F   0  0  0  0  0  0  0  0  0  0  0  0
    4.3367    1.5928    1.4023 C   0  0  0  0  0  0  0  0  0  0  0  0
    3.3242    0.9202    2.0931 C   0  0  0  0  0  0  0  0  0  0  0  0
    0.1032   -0.5882    1.6135 C   0  0  0  0  0  0  0  0  0  0  0  0
   -2.8912   -0.2220    0.9294 N   0  0  0  0  0  0  0  0  0  0  0  0
   -4.1064    0.2291    0.5165 C   0  0  0  0  0  0  0  0  0  0  0  0
   -5.0801    0.6012    1.4588 C   0  0  0  0  0  0  0  0  0  0  0  0
   -6.3335    1.0503    1.0377 C   0  0  0  0  0  0  0  0  0  0  0  0
   -6.6268    1.1305   -0.3242 C   0  0  0  0  0  0  0  0  0  0  0  0
   -5.6678    0.7637   -1.2716 C   0  0  0  0  0  0  0  0  0  0  0  0
   -4.3978    0.3102   -0.8607 C   0  0  0  0  0  0  0  0  0  0  0  0
   -3.4092   -0.0568   -1.7902 C   0  0  0  0  0  0  0  0  0  0  0  0
   -3.6656    0.0097   -3.0237 O   0  0  0  0  0  0  0  0  0  0  0  0
  1  2  1  0
  2  3  1  0
  2  4  1  0
  4  5  4  0
  5  6  1  0
  6  7  4  0
  7  8  4  0
  8  9  4  0
  9 10  1  0
 10 11  1  0
 11 12  4  0
 12 13  4  0
 13 14  4  0
 14 15  1  0
 15 16  1  0
 16 17  1  0
 16 18  1  0
 16 19  1  0
 14 20  4  0
 20 21  4  0
  9 22  4  0
  5 23  4  0
 23 24  4  0
 24 25  4  0
 25 26  4  0
 26 27  4  0
 27 28  4  0
 28 29  4  0
 29 30  4  0
 30 31  2  0
 21 11  4  0
 22  6  4  0
 29 24  4  0
 30  4  4  0
M  END
>  <SMILES>  (14) 
CC(C)c4c(c2cnn(Cc1ccc(OC(F)(F)F)cc1)c2)[nH]c3ccccc3c4=O

>  <NumConformers>  (14) 
34

>  <EnergyUnits>  (14) 
RDKit_forcefield

>  <Processing_Time>  (14) 
90.2s

>  <Original_Conformers>  (14) 
500

>  <Total_Conformers>  (14) 
34

>  <Energy>  (14) 
95.724998953006661

>  <Energy_Unit>  (14) 
RDKit_forcefield

>  <Rank>  (14) 
14

>  <Conformer_Index>  (14) 
13

$$$$
WDH-2G-6
     RDKit          3D

 31 34  0  0  0  0  0  0  0  0999 V2000
   -1.7170    2.1425   -2.9637 C   0  0  0  0  0  0  0  0  0  0  0  0
   -1.1782    0.8861   -2.2683 C   0  0  0  0  0  0  0  0  0  0  0  0
   -0.6648   -0.1428   -3.2867 C   0  0  0  0  0  0  0  0  0  0  0  0
   -2.2124    0.2837   -1.3077 C   0  0  0  0  0  0  0  0  0  0  0  0
   -1.9922    0.2577    0.0984 C   0  0  0  0  0  0  0  0  0  0  0  0
   -0.8445    0.9388    0.7350 C   0  0  0  0  0  0  0  0  0  0  0  0
   -0.4897    2.2732    0.6362 C   0  0  0  0  0  0  0  0  0  0  0  0
    0.5638    2.5114    1.4416 N   0  0  0  0  0  0  0  0  0  0  0  0
    0.8597    1.3776    2.0587 N   0  0  0  0  0  0  0  0  0  0  0  0
    1.9863    1.2197    2.9712 C   0  0  0  0  0  0  0  0  0  0  0  0
    3.2029    0.7801    2.2058 C   0  0  0  0  0  0  0  0  0  0  0  0
    4.0415    1.7303    1.6054 C   0  0  0  0  0  0  0  0  0  0  0  0
    5.1487    1.3202    0.8576 C   0  0  0  0  0  0  0  0  0  0  0  0
    5.4296   -0.0407    0.6867 C   0  0  0  0  0  0  0  0  0  0  0  0
    6.5557   -0.3944   -0.0738 O   0  0  0  0  0  0  0  0  0  0  0  0
    6.9786   -1.7281   -0.3484 C   0  0  0  0  0  0  0  0  0  0  0  0
    7.2639   -2.3908    0.8317 F   0  0  0  0  0  0  0  0  0  0  0  0
    8.1220   -1.6853   -1.1222 F   0  0  0  0  0  0  0  0  0  0  0  0
    5.9942   -2.4063   -1.0444 F   0  0  0  0  0  0  0  0  0  0  0  0
    4.5779   -0.9952    1.2765 C   0  0  0  0  0  0  0  0  0  0  0  0
    3.4703   -0.5850    2.0247 C   0  0  0  0  0  0  0  0  0  0  0  0
    0.0243    0.4006    1.6596 C   0  0  0  0  0  0  0  0  0  0  0  0
   -2.8668   -0.3989    0.9146 N   0  0  0  0  0  0  0  0  0  0  0  0
   -3.9937   -0.9983    0.4439 C   0  0  0  0  0  0  0  0  0  0  0  0
   -4.8705   -1.6495    1.3280 C   0  0  0  0  0  0  0  0  0  0  0  0
   -6.0356   -2.2519    0.8491 C   0  0  0  0  0  0  0  0  0  0  0  0
   -6.3372   -2.2082   -0.5128 C   0  0  0  0  0  0  0  0  0  0  0  0
   -5.4744   -1.5637   -1.4024 C   0  0  0  0  0  0  0  0  0  0  0  0
   -4.2932   -0.9539   -0.9332 C   0  0  0  0  0  0  0  0  0  0  0  0
   -3.3998   -0.3082   -1.8054 C   0  0  0  0  0  0  0  0  0  0  0  0
   -3.6642   -0.2620   -3.0383 O   0  0  0  0  0  0  0  0  0  0  0  0
  1  2  1  0
  2  3  1  0
  2  4  1  0
  4  5  4  0
  5  6  1  0
  6  7  4  0
  7  8  4  0
  8  9  4  0
  9 10  1  0
 10 11  1  0
 11 12  4  0
 12 13  4  0
 13 14  4  0
 14 15  1  0
 15 16  1  0
 16 17  1  0
 16 18  1  0
 16 19  1  0
 14 20  4  0
 20 21  4  0
  9 22  4  0
  5 23  4  0
 23 24  4  0
 24 25  4  0
 25 26  4  0
 26 27  4  0
 27 28  4  0
 28 29  4  0
 29 30  4  0
 30 31  2  0
 21 11  4  0
 22  6  4  0
 29 24  4  0
 30  4  4  0
M  END
>  <SMILES>  (15) 
CC(C)c4c(c2cnn(Cc1ccc(OC(F)(F)F)cc1)c2)[nH]c3ccccc3c4=O

>  <NumConformers>  (15) 
34

>  <EnergyUnits>  (15) 
RDKit_forcefield

>  <Processing_Time>  (15) 
90.2s

>  <Original_Conformers>  (15) 
500

>  <Total_Conformers>  (15) 
34

>  <Energy>  (15) 
95.726855111877825

>  <Energy_Unit>  (15) 
RDKit_forcefield

>  <Rank>  (15) 
15

>  <Conformer_Index>  (15) 
14

$$$$
WDH-2G-6
     RDKit          3D

 31 34  0  0  0  0  0  0  0  0999 V2000
   -0.8064    0.6713   -3.1887 C   0  0  0  0  0  0  0  0  0  0  0  0
   -1.0452   -0.5949   -2.3524 C   0  0  0  0  0  0  0  0  0  0  0  0
   -1.2587   -1.8240   -3.2449 C   0  0  0  0  0  0  0  0  0  0  0  0
   -2.1927   -0.4181   -1.3489 C   0  0  0  0  0  0  0  0  0  0  0  0
   -1.9803   -0.5526    0.0524 C   0  0  0  0  0  0  0  0  0  0  0  0
   -0.6958   -1.0154    0.6199 C   0  0  0  0  0  0  0  0  0  0  0  0
   -0.0214   -2.1916    0.3415 C   0  0  0  0  0  0  0  0  0  0  0  0
    1.0599   -2.2814    1.1405 N   0  0  0  0  0  0  0  0  0  0  0  0
    1.0670   -1.2146    1.9248 N   0  0  0  0  0  0  0  0  0  0  0  0
    2.1198   -0.9234    2.8911 C   0  0  0  0  0  0  0  0  0  0  0  0
    3.2092   -0.1257    2.2310 C   0  0  0  0  0  0  0  0  0  0  0  0
    4.2763   -0.7765    1.5940 C   0  0  0  0  0  0  0  0  0  0  0  0
    5.2682   -0.0364    0.9431 C   0  0  0  0  0  0  0  0  0  0  0  0
    5.1983    1.3702    0.9094 C   0  0  0  0  0  0  0  0  0  0  0  0
    6.1654    2.1636    0.2712 O   0  0  0  0  0  0  0  0  0  0  0  0
    7.3211    1.6710   -0.4033 C   0  0  0  0  0  0  0  0  0  0  0  0
    8.0400    2.7410   -0.8996 F   0  0  0  0  0  0  0  0  0  0  0  0
    6.9476    0.8571   -1.4577 F   0  0  0  0  0  0  0  0  0  0  0  0
    8.1224    0.9653    0.4767 F   0  0  0  0  0  0  0  0  0  0  0  0
    4.1222    2.0135    1.5327 C   0  0  0  0  0  0  0  0  0  0  0  0
    3.1314    1.2741    2.1845 C   0  0  0  0  0  0  0  0  0  0  0  0
    0.0145   -0.4243    1.6422 C   0  0  0  0  0  0  0  0  0  0  0  0
   -2.9881   -0.2666    0.9267 N   0  0  0  0  0  0  0  0  0  0  0  0
   -4.2312    0.0987    0.5119 C   0  0  0  0  0  0  0  0  0  0  0  0
   -5.2399    0.3679    1.4528 C   0  0  0  0  0  0  0  0  0  0  0  0
   -6.5207    0.7285    1.0294 C   0  0  0  0  0  0  0  0  0  0  0  0
   -6.8069    0.8219   -0.3334 C   0  0  0  0  0  0  0  0  0  0  0  0
   -5.8133    0.5568   -1.2795 C   0  0  0  0  0  0  0  0  0  0  0  0
   -4.5153    0.1936   -0.8662 C   0  0  0  0  0  0  0  0  0  0  0  0
   -3.4921   -0.0692   -1.7937 C   0  0  0  0  0  0  0  0  0  0  0  0
   -3.7414    0.0101   -3.0282 O   0  0  0  0  0  0  0  0  0  0  0  0
  1  2  1  0
  2  3  1  0
  2  4  1  0
  4  5  4  0
  5  6  1  0
  6  7  4  0
  7  8  4  0
  8  9  4  0
  9 10  1  0
 10 11  1  0
 11 12  4  0
 12 13  4  0
 13 14  4  0
 14 15  1  0
 15 16  1  0
 16 17  1  0
 16 18  1  0
 16 19  1  0
 14 20  4  0
 20 21  4  0
  9 22  4  0
  5 23  4  0
 23 24  4  0
 24 25  4  0
 25 26  4  0
 26 27  4  0
 27 28  4  0
 28 29  4  0
 29 30  4  0
 30 31  2  0
 21 11  4  0
 22  6  4  0
 29 24  4  0
 30  4  4  0
M  END
>  <SMILES>  (16) 
CC(C)c4c(c2cnn(Cc1ccc(OC(F)(F)F)cc1)c2)[nH]c3ccccc3c4=O

>  <NumConformers>  (16) 
34

>  <EnergyUnits>  (16) 
RDKit_forcefield

>  <Processing_Time>  (16) 
90.2s

>  <Original_Conformers>  (16) 
500

>  <Total_Conformers>  (16) 
34

>  <Energy>  (16) 
95.738308935401903

>  <Energy_Unit>  (16) 
RDKit_forcefield

>  <Rank>  (16) 
16

>  <Conformer_Index>  (16) 
15

$$$$
WDH-2G-6
     RDKit          3D

 31 34  0  0  0  0  0  0  0  0999 V2000
   -0.7160   -0.5293   -3.2314 C   0  0  0  0  0  0  0  0  0  0  0  0
   -1.1298    0.6192   -2.2994 C   0  0  0  0  0  0  0  0  0  0  0  0
   -1.5182    1.8726   -3.0929 C   0  0  0  0  0  0  0  0  0  0  0  0
   -2.2365    0.2027   -1.3210 C   0  0  0  0  0  0  0  0  0  0  0  0
   -2.0403    0.2574    0.0876 C   0  0  0  0  0  0  0  0  0  0  0  0
   -0.8324    0.8511    0.6994 C   0  0  0  0  0  0  0  0  0  0  0  0
   -0.3278    2.1267    0.5150 C   0  0  0  0  0  0  0  0  0  0  0  0
    0.7342    2.3033    1.3249 N   0  0  0  0  0  0  0  0  0  0  0  0
    0.8910    1.1915    2.0273 N   0  0  0  0  0  0  0  0  0  0  0  0
    1.9813    0.9735    2.9709 C   0  0  0  0  0  0  0  0  0  0  0  0
    3.1691    0.3991    2.2510 C   0  0  0  0  0  0  0  0  0  0  0  0
    4.1254    1.2475    1.6736 C   0  0  0  0  0  0  0  0  0  0  0  0
    5.2094    0.7146    0.9691 C   0  0  0  0  0  0  0  0  0  0  0  0
    5.3435   -0.6800    0.8189 C   0  0  0  0  0  0  0  0  0  0  0  0
    6.4105   -1.2699    0.1212 O   0  0  0  0  0  0  0  0  0  0  0  0
    7.4813   -0.5608   -0.4985 C   0  0  0  0  0  0  0  0  0  0  0  0
    8.3419   -1.4695   -1.0836 F   0  0  0  0  0  0  0  0  0  0  0  0
    6.9903    0.2824   -1.4792 F   0  0  0  0  0  0  0  0  0  0  0  0
    8.1785    0.1696    0.4469 F   0  0  0  0  0  0  0  0  0  0  0  0
    4.3765   -1.5207    1.3820 C   0  0  0  0  0  0  0  0  0  0  0  0
    3.2941   -0.9882    2.0884 C   0  0  0  0  0  0  0  0  0  0  0  0
   -0.0435    0.2879    1.6787 C   0  0  0  0  0  0  0  0  0  0  0  0
   -2.9941   -0.2356    0.9289 N   0  0  0  0  0  0  0  0  0  0  0  0
   -4.1732   -0.7429    0.4779 C   0  0  0  0  0  0  0  0  0  0  0  0
   -5.1282   -1.2282    1.3869 C   0  0  0  0  0  0  0  0  0  0  0  0
   -6.3454   -1.7351    0.9273 C   0  0  0  0  0  0  0  0  0  0  0  0
   -6.6214   -1.7609   -0.4400 C   0  0  0  0  0  0  0  0  0  0  0  0
   -5.6808   -1.2812   -1.3547 C   0  0  0  0  0  0  0  0  0  0  0  0
   -4.4463   -0.7697   -0.9049 C   0  0  0  0  0  0  0  0  0  0  0  0
   -3.4750   -0.2913   -1.8009 C   0  0  0  0  0  0  0  0  0  0  0  0
   -3.7156   -0.3074   -3.0388 O   0  0  0  0  0  0  0  0  0  0  0  0
  1  2  1  0
  2  3  1  0
  2  4  1  0
  4  5  4  0
  5  6  1  0
  6  7  4  0
  7  8  4  0
  8  9  4  0
  9 10  1  0
 10 11  1  0
 11 12  4  0
 12 13  4  0
 13 14  4  0
 14 15  1  0
 15 16  1  0
 16 17  1  0
 16 18  1  0
 16 19  1  0
 14 20  4  0
 20 21  4  0
  9 22  4  0
  5 23  4  0
 23 24  4  0
 24 25  4  0
 25 26  4  0
 26 27  4  0
 27 28  4  0
 28 29  4  0
 29 30  4  0
 30 31  2  0
 21 11  4  0
 22  6  4  0
 29 24  4  0
 30  4  4  0
M  END
>  <SMILES>  (17) 
CC(C)c4c(c2cnn(Cc1ccc(OC(F)(F)F)cc1)c2)[nH]c3ccccc3c4=O

>  <NumConformers>  (17) 
34

>  <EnergyUnits>  (17) 
RDKit_forcefield

>  <Processing_Time>  (17) 
90.2s

>  <Original_Conformers>  (17) 
500

>  <Total_Conformers>  (17) 
34

>  <Energy>  (17) 
95.745337740660915

>  <Energy_Unit>  (17) 
RDKit_forcefield

>  <Rank>  (17) 
17

>  <Conformer_Index>  (17) 
16

$$$$
WDH-2G-6
     RDKit          3D

 31 34  0  0  0  0  0  0  0  0999 V2000
   -2.0190    2.5924   -2.6168 C   0  0  0  0  0  0  0  0  0  0  0  0
   -2.0329    1.0714   -2.8140 C   0  0  0  0  0  0  0  0  0  0  0  0
   -2.8179    0.6758   -4.0737 C   0  0  0  0  0  0  0  0  0  0  0  0
   -2.5407    0.3420   -1.5625 C   0  0  0  0  0  0  0  0  0  0  0  0
   -1.6882   -0.5086   -0.8030 C   0  0  0  0  0  0  0  0  0  0  0  0
   -0.2392   -0.6228   -1.0731 C   0  0  0  0  0  0  0  0  0  0  0  0
    0.4917   -1.7899   -1.1991 C   0  0  0  0  0  0  0  0  0  0  0  0
    1.7991   -1.4838   -1.3140 N   0  0  0  0  0  0  0  0  0  0  0  0
    1.9080   -0.1649   -1.2583 N   0  0  0  0  0  0  0  0  0  0  0  0
    3.1826    0.5449   -1.2612 C   0  0  0  0  0  0  0  0  0  0  0  0
    3.8106    0.4708    0.1028 C   0  0  0  0  0  0  0  0  0  0  0  0
    3.3760    1.3266    1.1255 C   0  0  0  0  0  0  0  0  0  0  0  0
    3.9283    1.2322    2.4058 C   0  0  0  0  0  0  0  0  0  0  0  0
    4.9137    0.2786    2.6885 C   0  0  0  0  0  0  0  0  0  0  0  0
    5.4305    0.2264    3.9932 O   0  0  0  0  0  0  0  0  0  0  0  0
    6.4477   -0.6668    4.4415 C   0  0  0  0  0  0  0  0  0  0  0  0
    6.6967   -0.4260    5.7787 F   0  0  0  0  0  0  0  0  0  0  0  0
    6.0305   -1.9779    4.2951 F   0  0  0  0  0  0  0  0  0  0  0  0
    7.6134   -0.4598    3.7255 F   0  0  0  0  0  0  0  0  0  0  0  0
    5.3433   -0.5870    1.6637 C   0  0  0  0  0  0  0  0  0  0  0  0
    4.7900   -0.4934    0.3832 C   0  0  0  0  0  0  0  0  0  0  0  0
    0.6945    0.3927   -1.0889 C   0  0  0  0  0  0  0  0  0  0  0  0
   -2.1971   -1.2400    0.2305 N   0  0  0  0  0  0  0  0  0  0  0  0
   -3.5010   -1.1564    0.6099 C   0  0  0  0  0  0  0  0  0  0  0  0
   -3.9735   -1.9207    1.6901 C   0  0  0  0  0  0  0  0  0  0  0  0
   -5.3078   -1.8266    2.0902 C   0  0  0  0  0  0  0  0  0  0  0  0
   -6.1805   -0.9686    1.4195 C   0  0  0  0  0  0  0  0  0  0  0  0
   -5.7238   -0.2021    0.3444 C   0  0  0  0  0  0  0  0  0  0  0  0
   -4.3797   -0.2893   -0.0721 C   0  0  0  0  0  0  0  0  0  0  0  0
   -3.8934    0.4607   -1.1569 C   0  0  0  0  0  0  0  0  0  0  0  0
   -4.6747    1.2394   -1.7689 O   0  0  0  0  0  0  0  0  0  0  0  0
  1  2  1  0
  2  3  1  0
  2  4  1  0
  4  5  4  0
  5  6  1  0
  6  7  4  0
  7  8  4  0
  8  9  4  0
  9 10  1  0
 10 11  1  0
 11 12  4  0
 12 13  4  0
 13 14  4  0
 14 15  1  0
 15 16  1  0
 16 17  1  0
 16 18  1  0
 16 19  1  0
 14 20  4  0
 20 21  4  0
  9 22  4  0
  5 23  4  0
 23 24  4  0
 24 25  4  0
 25 26  4  0
 26 27  4  0
 27 28  4  0
 28 29  4  0
 29 30  4  0
 30 31  2  0
 21 11  4  0
 22  6  4  0
 29 24  4  0
 30  4  4  0
M  END
>  <SMILES>  (18) 
CC(C)c4c(c2cnn(Cc1ccc(OC(F)(F)F)cc1)c2)[nH]c3ccccc3c4=O

>  <NumConformers>  (18) 
34

>  <EnergyUnits>  (18) 
RDKit_forcefield

>  <Processing_Time>  (18) 
90.2s

>  <Original_Conformers>  (18) 
500

>  <Total_Conformers>  (18) 
34

>  <Energy>  (18) 
95.791552814939536

>  <Energy_Unit>  (18) 
RDKit_forcefield

>  <Rank>  (18) 
18

>  <Conformer_Index>  (18) 
17

$$$$
WDH-2G-6
     RDKit          3D

 31 34  0  0  0  0  0  0  0  0999 V2000
   -1.1121    2.0437   -2.1273 C   0  0  0  0  0  0  0  0  0  0  0  0
   -1.3772    1.5973   -0.6827 C   0  0  0  0  0  0  0  0  0  0  0  0
   -1.7647    2.7895    0.2085 C   0  0  0  0  0  0  0  0  0  0  0  0
   -2.4139    0.4655   -0.6249 C   0  0  0  0  0  0  0  0  0  0  0  0
   -2.0545   -0.8520   -0.2185 C   0  0  0  0  0  0  0  0  0  0  0  0
   -0.6507   -1.2575    0.0172 C   0  0  0  0  0  0  0  0  0  0  0  0
   -0.1625   -1.9702    1.0987 C   0  0  0  0  0  0  0  0  0  0  0  0
    1.1463   -2.2291    0.9064 N   0  0  0  0  0  0  0  0  0  0  0  0
    1.4848   -1.7241   -0.2710 N   0  0  0  0  0  0  0  0  0  0  0  0
    2.8377   -1.7664   -0.8166 C   0  0  0  0  0  0  0  0  0  0  0  0
    3.7125   -0.7694   -0.1063 C   0  0  0  0  0  0  0  0  0  0  0  0
    3.4506    0.6060   -0.2206 C   0  0  0  0  0  0  0  0  0  0  0  0
    4.2501    1.5358    0.4506 C   0  0  0  0  0  0  0  0  0  0  0  0
    5.3268    1.1108    1.2393 C   0  0  0  0  0  0  0  0  0  0  0  0
    6.1004    2.0890    1.8864 O   0  0  0  0  0  0  0  0  0  0  0  0
    7.2910    1.8387    2.6308 C   0  0  0  0  0  0  0  0  0  0  0  0
    8.2391    1.2401    1.8186 F   0  0  0  0  0  0  0  0  0  0  0  0
    7.0186    1.0239    3.7173 F   0  0  0  0  0  0  0  0  0  0  0  0
    7.7924    3.0410    3.0917 F   0  0  0  0  0  0  0  0  0  0  0  0
    5.5899   -0.2696    1.3558 C   0  0  0  0  0  0  0  0  0  0  0  0
    4.7828   -1.2006    0.6935 C   0  0  0  0  0  0  0  0  0  0  0  0
    0.4200   -1.1339   -0.8456 C   0  0  0  0  0  0  0  0  0  0  0  0
   -3.0202   -1.8020   -0.0517 N   0  0  0  0  0  0  0  0  0  0  0  0
   -4.3334   -1.5604   -0.3119 C   0  0  0  0  0  0  0  0  0  0  0  0
   -5.2873   -2.5779   -0.1361 C   0  0  0  0  0  0  0  0  0  0  0  0
   -6.6333   -2.3392   -0.4204 C   0  0  0  0  0  0  0  0  0  0  0  0
   -7.0388   -1.0861   -0.8812 C   0  0  0  0  0  0  0  0  0  0  0  0
   -6.1009   -0.0649   -1.0609 C   0  0  0  0  0  0  0  0  0  0  0  0
   -4.7389   -0.2920   -0.7771 C   0  0  0  0  0  0  0  0  0  0  0  0
   -3.7733    0.7170   -0.9376 C   0  0  0  0  0  0  0  0  0  0  0  0
   -4.1284    1.8515   -1.3629 O   0  0  0  0  0  0  0  0  0  0  0  0
  1  2  1  0
  2  3  1  0
  2  4  1  0
  4  5  4  0
  5  6  1  0
  6  7  4  0
  7  8  4  0
  8  9  4  0
  9 10  1  0
 10 11  1  0
 11 12  4  0
 12 13  4  0
 13 14  4  0
 14 15  1  0
 15 16  1  0
 16 17  1  0
 16 18  1  0
 16 19  1  0
 14 20  4  0
 20 21  4  0
  9 22  4  0
  5 23  4  0
 23 24  4  0
 24 25  4  0
 25 26  4  0
 26 27  4  0
 27 28  4  0
 28 29  4  0
 29 30  4  0
 30 31  2  0
 21 11  4  0
 22  6  4  0
 29 24  4  0
 30  4  4  0
M  END
>  <SMILES>  (19) 
CC(C)c4c(c2cnn(Cc1ccc(OC(F)(F)F)cc1)c2)[nH]c3ccccc3c4=O

>  <NumConformers>  (19) 
34

>  <EnergyUnits>  (19) 
RDKit_forcefield

>  <Processing_Time>  (19) 
90.2s

>  <Original_Conformers>  (19) 
500

>  <Total_Conformers>  (19) 
34

>  <Energy>  (19) 
95.943586150166638

>  <Energy_Unit>  (19) 
RDKit_forcefield

>  <Rank>  (19) 
19

>  <Conformer_Index>  (19) 
18

$$$$
WDH-2G-6
     RDKit          3D

 31 34  0  0  0  0  0  0  0  0999 V2000
   -1.6071    2.8941   -1.6026 C   0  0  0  0  0  0  0  0  0  0  0  0
   -2.3056    2.3540   -0.3468 C   0  0  0  0  0  0  0  0  0  0  0  0
   -3.5875    3.1443   -0.0380 C   0  0  0  0  0  0  0  0  0  0  0  0
   -2.5661    0.8457   -0.4537 C   0  0  0  0  0  0  0  0  0  0  0  0
   -1.8959   -0.0863    0.3888 C   0  0  0  0  0  0  0  0  0  0  0  0
   -0.8057    0.3098    1.3077 C   0  0  0  0  0  0  0  0  0  0  0  0
   -0.6612   -0.0698    2.6310 C   0  0  0  0  0  0  0  0  0  0  0  0
    0.5184    0.3842    3.0980 N   0  0  0  0  0  0  0  0  0  0  0  0
    1.1218    1.0221    2.1061 N   0  0  0  0  0  0  0  0  0  0  0  0
    2.4389    1.6420    2.2192 C   0  0  0  0  0  0  0  0  0  0  0  0
    3.4522    0.8898    1.3961 C   0  0  0  0  0  0  0  0  0  0  0  0
    3.6995   -0.4679    1.6516 C   0  0  0  0  0  0  0  0  0  0  0  0
    4.6474   -1.1688    0.8985 C   0  0  0  0  0  0  0  0  0  0  0  0
    5.3771   -0.5146   -0.1143 C   0  0  0  0  0  0  0  0  0  0  0  0
    6.3429   -1.1665   -0.8989 O   0  0  0  0  0  0  0  0  0  0  0  0
    6.6754   -2.5510   -0.8151 C   0  0  0  0  0  0  0  0  0  0  0  0
    7.6445   -2.8378   -1.7589 F   0  0  0  0  0  0  0  0  0  0  0  0
    7.1758   -2.8468    0.4423 F   0  0  0  0  0  0  0  0  0  0  0  0
    5.5566   -3.3257   -1.0730 F   0  0  0  0  0  0  0  0  0  0  0  0
    5.1351    0.8423   -0.3582 C   0  0  0  0  0  0  0  0  0  0  0  0
    4.1788    1.5409    0.3863 C   0  0  0  0  0  0  0  0  0  0  0  0
    0.3571    0.9871    0.9981 C   0  0  0  0  0  0  0  0  0  0  0  0
   -2.2431   -1.4060    0.3567 N   0  0  0  0  0  0  0  0  0  0  0  0
   -3.1842   -1.8928   -0.4967 C   0  0  0  0  0  0  0  0  0  0  0  0
   -3.4951   -3.2628   -0.4994 C   0  0  0  0  0  0  0  0  0  0  0  0
   -4.4510   -3.7673   -1.3841 C   0  0  0  0  0  0  0  0  0  0  0  0
   -5.1010   -2.9122   -2.2749 C   0  0  0  0  0  0  0  0  0  0  0  0
   -4.8004   -1.5477   -2.2835 C   0  0  0  0  0  0  0  0  0  0  0  0
   -3.8392   -1.0244   -1.3940 C   0  0  0  0  0  0  0  0  0  0  0  0
   -3.5218    0.3445   -1.3725 C   0  0  0  0  0  0  0  0  0  0  0  0
   -4.0979    1.1254   -2.1789 O   0  0  0  0  0  0  0  0  0  0  0  0
  1  2  1  0
  2  3  1  0
  2  4  1  0
  4  5  4  0
  5  6  1  0
  6  7  4  0
  7  8  4  0
  8  9  4  0
  9 10  1  0
 10 11  1  0
 11 12  4  0
 12 13  4  0
 13 14  4  0
 14 15  1  0
 15 16  1  0
 16 17  1  0
 16 18  1  0
 16 19  1  0
 14 20  4  0
 20 21  4  0
  9 22  4  0
  5 23  4  0
 23 24  4  0
 24 25  4  0
 25 26  4  0
 26 27  4  0
 27 28  4  0
 28 29  4  0
 29 30  4  0
 30 31  2  0
 21 11  4  0
 22  6  4  0
 29 24  4  0
 30  4  4  0
M  END
>  <SMILES>  (20) 
CC(C)c4c(c2cnn(Cc1ccc(OC(F)(F)F)cc1)c2)[nH]c3ccccc3c4=O

>  <NumConformers>  (20) 
34

>  <EnergyUnits>  (20) 
RDKit_forcefield

>  <Processing_Time>  (20) 
90.2s

>  <Original_Conformers>  (20) 
500

>  <Total_Conformers>  (20) 
34

>  <Energy>  (20) 
96.394060420997775

>  <Energy_Unit>  (20) 
RDKit_forcefield

>  <Rank>  (20) 
20

>  <Conformer_Index>  (20) 
19

$$$$
WDH-2G-6
     RDKit          3D

 31 34  0  0  0  0  0  0  0  0999 V2000
    0.3292   -0.0289   -1.9698 C   0  0  0  0  0  0  0  0  0  0  0  0
   -0.4899   -1.2248   -1.4736 C   0  0  0  0  0  0  0  0  0  0  0  0
    0.3104   -2.0879   -0.4852 C   0  0  0  0  0  0  0  0  0  0  0  0
   -1.8804   -0.7931   -0.9730 C   0  0  0  0  0  0  0  0  0  0  0  0
   -2.1302   -0.2818    0.3345 C   0  0  0  0  0  0  0  0  0  0  0  0
   -1.0640   -0.0779    1.3256 C   0  0  0  0  0  0  0  0  0  0  0  0
   -0.7867   -0.8696    2.4234 C   0  0  0  0  0  0  0  0  0  0  0  0
    0.2472   -0.3328    3.1010 N   0  0  0  0  0  0  0  0  0  0  0  0
    0.5893    0.7892    2.4848 N   0  0  0  0  0  0  0  0  0  0  0  0
    1.7564    1.5877    2.8389 C   0  0  0  0  0  0  0  0  0  0  0  0
    2.9176    1.1838    1.9733 C   0  0  0  0  0  0  0  0  0  0  0  0
    3.7564    0.1293    2.3623 C   0  0  0  0  0  0  0  0  0  0  0  0
    4.7852   -0.3002    1.5195 C   0  0  0  0  0  0  0  0  0  0  0  0
    4.9832    0.3022    0.2713 C   0  0  0  0  0  0  0  0  0  0  0  0
    6.0262   -0.1764   -0.5381 O   0  0  0  0  0  0  0  0  0  0  0  0
    6.3517    0.3138   -1.8369 C   0  0  0  0  0  0  0  0  0  0  0  0
    7.4272   -0.4001   -2.3287 F   0  0  0  0  0  0  0  0  0  0  0  0
    6.6978    1.6515   -1.7684 F   0  0  0  0  0  0  0  0  0  0  0  0
    5.2772    0.1474   -2.6924 F   0  0  0  0  0  0  0  0  0  0  0  0
    4.1327    1.3527   -0.1248 C   0  0  0  0  0  0  0  0  0  0  0  0
    3.1060    1.7848    0.7196 C   0  0  0  0  0  0  0  0  0  0  0  0
   -0.1949    0.9849    1.4086 C   0  0  0  0  0  0  0  0  0  0  0  0
   -3.3989    0.0454    0.7126 N   0  0  0  0  0  0  0  0  0  0  0  0
   -4.4605   -0.0579   -0.1308 C   0  0  0  0  0  0  0  0  0  0  0  0
   -5.7476    0.2997    0.3049 C   0  0  0  0  0  0  0  0  0  0  0  0
   -6.8370    0.2070   -0.5635 C   0  0  0  0  0  0  0  0  0  0  0  0
   -6.6523   -0.2404   -1.8722 C   0  0  0  0  0  0  0  0  0  0  0  0
   -5.3777   -0.5990   -2.3181 C   0  0  0  0  0  0  0  0  0  0  0  0
   -4.2694   -0.5130   -1.4510 C   0  0  0  0  0  0  0  0  0  0  0  0
   -2.9758   -0.8711   -1.8689 C   0  0  0  0  0  0  0  0  0  0  0  0
   -2.7956   -1.2624   -3.0562 O   0  0  0  0  0  0  0  0  0  0  0  0
  1  2  1  0
  2  3  1  0
  2  4  1  0
  4  5  4  0
  5  6  1  0
  6  7  4  0
  7  8  4  0
  8  9  4  0
  9 10  1  0
 10 11  1  0
 11 12  4  0
 12 13  4  0
 13 14  4  0
 14 15  1  0
 15 16  1  0
 16 17  1  0
 16 18  1  0
 16 19  1  0
 14 20  4  0
 20 21  4  0
  9 22  4  0
  5 23  4  0
 23 24  4  0
 24 25  4  0
 25 26  4  0
 26 27  4  0
 27 28  4  0
 28 29  4  0
 29 30  4  0
 30 31  2  0
 21 11  4  0
 22  6  4  0
 29 24  4  0
 30  4  4  0
M  END
>  <SMILES>  (21) 
CC(C)c4c(c2cnn(Cc1ccc(OC(F)(F)F)cc1)c2)[nH]c3ccccc3c4=O

>  <NumConformers>  (21) 
34

>  <EnergyUnits>  (21) 
RDKit_forcefield

>  <Processing_Time>  (21) 
90.2s

>  <Original_Conformers>  (21) 
500

>  <Total_Conformers>  (21) 
34

>  <Energy>  (21) 
98.473628095081352

>  <Energy_Unit>  (21) 
RDKit_forcefield

>  <Rank>  (21) 
21

>  <Conformer_Index>  (21) 
20

$$$$
WDH-2G-6
     RDKit          3D

 31 34  0  0  0  0  0  0  0  0999 V2000
    0.3341   -1.5643   -1.2894 C   0  0  0  0  0  0  0  0  0  0  0  0
   -0.5388   -0.4388   -1.8537 C   0  0  0  0  0  0  0  0  0  0  0  0
    0.2140    0.9010   -1.8832 C   0  0  0  0  0  0  0  0  0  0  0  0
   -1.9170   -0.3905   -1.1688 C   0  0  0  0  0  0  0  0  0  0  0  0
   -2.1663    0.2695    0.0705 C   0  0  0  0  0  0  0  0  0  0  0  0
   -1.1083    0.9339    0.8451 C   0  0  0  0  0  0  0  0  0  0  0  0
   -0.8910    2.2935    0.9586 C   0  0  0  0  0  0  0  0  0  0  0  0
    0.1558    2.5029    1.7811 N   0  0  0  0  0  0  0  0  0  0  0  0
    0.5647    1.3203    2.2166 N   0  0  0  0  0  0  0  0  0  0  0  0
    1.7674    1.1209    3.0159 C   0  0  0  0  0  0  0  0  0  0  0  0
    2.9416    0.9025    2.1024 C   0  0  0  0  0  0  0  0  0  0  0  0
    3.1967   -0.3726    1.5758 C   0  0  0  0  0  0  0  0  0  0  0  0
    4.2361   -0.5651    0.6612 C   0  0  0  0  0  0  0  0  0  0  0  0
    5.0343    0.5217    0.2543 C   0  0  0  0  0  0  0  0  0  0  0  0
    6.0889    0.3876   -0.6632 O   0  0  0  0  0  0  0  0  0  0  0  0
    6.4746   -0.8271   -1.3028 C   0  0  0  0  0  0  0  0  0  0  0  0
    7.5434   -0.5733   -2.1402 F   0  0  0  0  0  0  0  0  0  0  0  0
    5.4254   -1.3226   -2.0564 F   0  0  0  0  0  0  0  0  0  0  0  0
    6.8602   -1.7618   -0.3586 F   0  0  0  0  0  0  0  0  0  0  0  0
    4.7705    1.7935    0.7769 C   0  0  0  0  0  0  0  0  0  0  0  0
    3.7279    1.9871    1.6874 C   0  0  0  0  0  0  0  0  0  0  0  0
   -0.1878    0.3426    1.6788 C   0  0  0  0  0  0  0  0  0  0  0  0
   -3.4273    0.3022    0.5889 N   0  0  0  0  0  0  0  0  0  0  0  0
   -4.4791   -0.3157   -0.0121 C   0  0  0  0  0  0  0  0  0  0  0  0
   -5.7579   -0.2597    0.5675 C   0  0  0  0  0  0  0  0  0  0  0  0
   -6.8362   -0.9059   -0.0404 C   0  0  0  0  0  0  0  0  0  0  0  0
   -6.6483   -1.6136   -1.2284 C   0  0  0  0  0  0  0  0  0  0  0  0
   -5.3820   -1.6766   -1.8153 C   0  0  0  0  0  0  0  0  0  0  0  0
   -4.2852   -1.0267   -1.2137 C   0  0  0  0  0  0  0  0  0  0  0  0
   -3.0003   -1.0676   -1.7828 C   0  0  0  0  0  0  0  0  0  0  0  0
   -2.8170   -1.7178   -2.8500 O   0  0  0  0  0  0  0  0  0  0  0  0
  1  2  1  0
  2  3  1  0
  2  4  1  0
  4  5  4  0
  5  6  1  0
  6  7  4  0
  7  8  4  0
  8  9  4  0
  9 10  1  0
 10 11  1  0
 11 12  4  0
 12 13  4  0
 13 14  4  0
 14 15  1  0
 15 16  1  0
 16 17  1  0
 16 18  1  0
 16 19  1  0
 14 20  4  0
 20 21  4  0
  9 22  4  0
  5 23  4  0
 23 24  4  0
 24 25  4  0
 25 26  4  0
 26 27  4  0
 27 28  4  0
 28 29  4  0
 29 30  4  0
 30 31  2  0
 21 11  4  0
 22  6  4  0
 29 24  4  0
 30  4  4  0
M  END
>  <SMILES>  (22) 
CC(C)c4c(c2cnn(Cc1ccc(OC(F)(F)F)cc1)c2)[nH]c3ccccc3c4=O

>  <NumConformers>  (22) 
34

>  <EnergyUnits>  (22) 
RDKit_forcefield

>  <Processing_Time>  (22) 
90.2s

>  <Original_Conformers>  (22) 
500

>  <Total_Conformers>  (22) 
34

>  <Energy>  (22) 
98.482349825532694

>  <Energy_Unit>  (22) 
RDKit_forcefield

>  <Rank>  (22) 
22

>  <Conformer_Index>  (22) 
21

$$$$
WDH-2G-6
     RDKit          3D

 31 34  0  0  0  0  0  0  0  0999 V2000
    0.0432    0.4830   -2.1462 C   0  0  0  0  0  0  0  0  0  0  0  0
   -0.6555   -0.8406   -1.8197 C   0  0  0  0  0  0  0  0  0  0  0  0
    0.2797   -1.8062   -1.0742 C   0  0  0  0  0  0  0  0  0  0  0  0
   -2.0165   -0.6108   -1.1382 C   0  0  0  0  0  0  0  0  0  0  0  0
   -2.1716   -0.3513    0.2552 C   0  0  0  0  0  0  0  0  0  0  0  0
   -1.0301   -0.2369    1.1743 C   0  0  0  0  0  0  0  0  0  0  0  0
   -0.6023   -1.1797    2.0895 C   0  0  0  0  0  0  0  0  0  0  0  0
    0.4386   -0.6772    2.7828 N   0  0  0  0  0  0  0  0  0  0  0  0
    0.6405    0.5615    2.3582 N   0  0  0  0  0  0  0  0  0  0  0  0
    1.7580    1.3951    2.7843 C   0  0  0  0  0  0  0  0  0  0  0  0
    2.9092    1.2116    1.8347 C   0  0  0  0  0  0  0  0  0  0  0  0
    3.8596    0.2053    2.0607 C   0  0  0  0  0  0  0  0  0  0  0  0
    4.8923   -0.0106    1.1431 C   0  0  0  0  0  0  0  0  0  0  0  0
    4.9806    0.7723   -0.0247 C   0  0  0  0  0  0  0  0  0  0  0  0
    5.9956    0.6001   -0.9796 O   0  0  0  0  0  0  0  0  0  0  0  0
    7.0460   -0.3612   -0.9011 C   0  0  0  0  0  0  0  0  0  0  0  0
    6.5204   -1.6408   -0.8799 F   0  0  0  0  0  0  0  0  0  0  0  0
    7.8571   -0.2311   -2.0117 F   0  0  0  0  0  0  0  0  0  0  0  0
    7.8066   -0.1455    0.2344 F   0  0  0  0  0  0  0  0  0  0  0  0
    4.0195    1.7640   -0.2536 C   0  0  0  0  0  0  0  0  0  0  0  0
    2.9882    1.9809    0.6641 C   0  0  0  0  0  0  0  0  0  0  0  0
   -0.2414    0.8694    1.3892 C   0  0  0  0  0  0  0  0  0  0  0  0
   -3.4160   -0.1896    0.7891 N   0  0  0  0  0  0  0  0  0  0  0  0
   -4.5447   -0.2267    0.0315 C   0  0  0  0  0  0  0  0  0  0  0  0
   -5.8036   -0.0447    0.6286 C   0  0  0  0  0  0  0  0  0  0  0  0
   -6.9627   -0.0676   -0.1497 C   0  0  0  0  0  0  0  0  0  0  0  0
   -6.8764   -0.2713   -1.5276 C   0  0  0  0  0  0  0  0  0  0  0  0
   -5.6309   -0.4542   -2.1337 C   0  0  0  0  0  0  0  0  0  0  0  0
   -4.4526   -0.4347   -1.3597 C   0  0  0  0  0  0  0  0  0  0  0  0
   -3.1851   -0.6180   -1.9400 C   0  0  0  0  0  0  0  0  0  0  0  0
   -3.0952   -0.7864   -3.1886 O   0  0  0  0  0  0  0  0  0  0  0  0
  1  2  1  0
  2  3  1  0
  2  4  1  0
  4  5  4  0
  5  6  1  0
  6  7  4  0
  7  8  4  0
  8  9  4  0
  9 10  1  0
 10 11  1  0
 11 12  4  0
 12 13  4  0
 13 14  4  0
 14 15  1  0
 15 16  1  0
 16 17  1  0
 16 18  1  0
 16 19  1  0
 14 20  4  0
 20 21  4  0
  9 22  4  0
  5 23  4  0
 23 24  4  0
 24 25  4  0
 25 26  4  0
 26 27  4  0
 27 28  4  0
 28 29  4  0
 29 30  4  0
 30 31  2  0
 21 11  4  0
 22  6  4  0
 29 24  4  0
 30  4  4  0
M  END
>  <SMILES>  (23) 
CC(C)c4c(c2cnn(Cc1ccc(OC(F)(F)F)cc1)c2)[nH]c3ccccc3c4=O

>  <NumConformers>  (23) 
34

>  <EnergyUnits>  (23) 
RDKit_forcefield

>  <Processing_Time>  (23) 
90.2s

>  <Original_Conformers>  (23) 
500

>  <Total_Conformers>  (23) 
34

>  <Energy>  (23) 
98.555385685039539

>  <Energy_Unit>  (23) 
RDKit_forcefield

>  <Rank>  (23) 
23

>  <Conformer_Index>  (23) 
22

$$$$
WDH-2G-6
     RDKit          3D

 31 34  0  0  0  0  0  0  0  0999 V2000
   -0.5080    1.4649   -2.5292 C   0  0  0  0  0  0  0  0  0  0  0  0
   -0.6330    0.0089   -2.0690 C   0  0  0  0  0  0  0  0  0  0  0  0
    0.6433   -0.4753   -1.3632 C   0  0  0  0  0  0  0  0  0  0  0  0
   -1.9254   -0.2214   -1.2656 C   0  0  0  0  0  0  0  0  0  0  0  0
   -2.1122    0.2418    0.0694 C   0  0  0  0  0  0  0  0  0  0  0  0
   -1.0623    0.9461    0.8194 C   0  0  0  0  0  0  0  0  0  0  0  0
   -0.8917    2.3112    0.9364 C   0  0  0  0  0  0  0  0  0  0  0  0
    0.1449    2.5546    1.7621 N   0  0  0  0  0  0  0  0  0  0  0  0
    0.5916    1.3863    2.1979 N   0  0  0  0  0  0  0  0  0  0  0  0
    1.7978    1.2266    3.0011 C   0  0  0  0  0  0  0  0  0  0  0  0
    2.9464    0.8496    2.1067 C   0  0  0  0  0  0  0  0  0  0  0  0
    3.5783    1.8276    1.3254 C   0  0  0  0  0  0  0  0  0  0  0  0
    4.5872    1.4688    0.4274 C   0  0  0  0  0  0  0  0  0  0  0  0
    4.9781    0.1314    0.2909 C   0  0  0  0  0  0  0  0  0  0  0  0
    5.9940   -0.1718   -0.6298 O   0  0  0  0  0  0  0  0  0  0  0  0
    6.5195   -1.4743   -0.8767 C   0  0  0  0  0  0  0  0  0  0  0  0
    7.0749   -1.9896    0.2817 F   0  0  0  0  0  0  0  0  0  0  0  0
    5.5200   -2.3138   -1.3355 F   0  0  0  0  0  0  0  0  0  0  0  0
    7.5044   -1.3853   -1.8418 F   0  0  0  0  0  0  0  0  0  0  0  0
    4.3388   -0.8519    1.0708 C   0  0  0  0  0  0  0  0  0  0  0  0
    3.3250   -0.4938    1.9645 C   0  0  0  0  0  0  0  0  0  0  0  0
   -0.1310    0.3846    1.6629 C   0  0  0  0  0  0  0  0  0  0  0  0
   -3.3006    0.0398    0.7065 N   0  0  0  0  0  0  0  0  0  0  0  0
   -4.3492   -0.5894    0.1119 C   0  0  0  0  0  0  0  0  0  0  0  0
   -5.5538   -0.7710    0.8111 C   0  0  0  0  0  0  0  0  0  0  0  0
   -6.6347   -1.4088    0.1992 C   0  0  0  0  0  0  0  0  0  0  0  0
   -6.5232   -1.8707   -1.1130 C   0  0  0  0  0  0  0  0  0  0  0  0
   -5.3299   -1.6992   -1.8185 C   0  0  0  0  0  0  0  0  0  0  0  0
   -4.2305   -1.0571   -1.2128 C   0  0  0  0  0  0  0  0  0  0  0  0
   -3.0187   -0.8651   -1.8985 C   0  0  0  0  0  0  0  0  0  0  0  0
   -2.9145   -1.2678   -3.0908 O   0  0  0  0  0  0  0  0  0  0  0  0
  1  2  1  0
  2  3  1  0
  2  4  1  0
  4  5  4  0
  5  6  1  0
  6  7  4  0
  7  8  4  0
  8  9  4  0
  9 10  1  0
 10 11  1  0
 11 12  4  0
 12 13  4  0
 13 14  4  0
 14 15  1  0
 15 16  1  0
 16 17  1  0
 16 18  1  0
 16 19  1  0
 14 20  4  0
 20 21  4  0
  9 22  4  0
  5 23  4  0
 23 24  4  0
 24 25  4  0
 25 26  4  0
 26 27  4  0
 27 28  4  0
 28 29  4  0
 29 30  4  0
 30 31  2  0
 21 11  4  0
 22  6  4  0
 29 24  4  0
 30  4  4  0
M  END
>  <SMILES>  (24) 
CC(C)c4c(c2cnn(Cc1ccc(OC(F)(F)F)cc1)c2)[nH]c3ccccc3c4=O

>  <NumConformers>  (24) 
34

>  <EnergyUnits>  (24) 
RDKit_forcefield

>  <Processing_Time>  (24) 
90.2s

>  <Original_Conformers>  (24) 
500

>  <Total_Conformers>  (24) 
34

>  <Energy>  (24) 
98.753861471413572

>  <Energy_Unit>  (24) 
RDKit_forcefield

>  <Rank>  (24) 
24

>  <Conformer_Index>  (24) 
23

$$$$
WDH-2G-6
     RDKit          3D

 31 34  0  0  0  0  0  0  0  0999 V2000
   -0.1998   -2.6733   -1.0757 C   0  0  0  0  0  0  0  0  0  0  0  0
   -0.5543   -1.2820   -1.6095 C   0  0  0  0  0  0  0  0  0  0  0  0
    0.6044   -0.2901   -1.4193 C   0  0  0  0  0  0  0  0  0  0  0  0
   -1.9059   -0.7944   -1.0582 C   0  0  0  0  0  0  0  0  0  0  0  0
   -2.0835   -0.3027    0.2682 C   0  0  0  0  0  0  0  0  0  0  0  0
   -0.9750   -0.1830    1.2255 C   0  0  0  0  0  0  0  0  0  0  0  0
   -0.5619   -1.1203    2.1511 C   0  0  0  0  0  0  0  0  0  0  0  0
    0.4483   -0.6029    2.8779 N   0  0  0  0  0  0  0  0  0  0  0  0
    0.6425    0.6407    2.4652 N   0  0  0  0  0  0  0  0  0  0  0  0
    1.7510    1.4783    2.9066 C   0  0  0  0  0  0  0  0  0  0  0  0
    2.8639    1.4069    1.8970 C   0  0  0  0  0  0  0  0  0  0  0  0
    3.0865    2.4649    1.0041 C   0  0  0  0  0  0  0  0  0  0  0  0
    4.0746    2.3618    0.0215 C   0  0  0  0  0  0  0  0  0  0  0  0
    4.8428    1.1988   -0.0976 C   0  0  0  0  0  0  0  0  0  0  0  0
    5.8131    1.1468   -1.1112 O   0  0  0  0  0  0  0  0  0  0  0  0
    6.6314    0.0176   -1.4098 C   0  0  0  0  0  0  0  0  0  0  0  0
    7.4345   -0.2903   -0.3256 F   0  0  0  0  0  0  0  0  0  0  0  0
    7.4378    0.3218   -2.4899 F   0  0  0  0  0  0  0  0  0  0  0  0
    5.8420   -1.0714   -1.7364 F   0  0  0  0  0  0  0  0  0  0  0  0
    4.6133    0.1332    0.7934 C   0  0  0  0  0  0  0  0  0  0  0  0
    3.6300    0.2387    1.7807 C   0  0  0  0  0  0  0  0  0  0  0  0
   -0.2170    0.9391    1.4733 C   0  0  0  0  0  0  0  0  0  0  0  0
   -3.3167    0.0904    0.6953 N   0  0  0  0  0  0  0  0  0  0  0  0
   -4.4199    0.0183   -0.0966 C   0  0  0  0  0  0  0  0  0  0  0  0
   -5.6701    0.4357    0.3924 C   0  0  0  0  0  0  0  0  0  0  0  0
   -6.8062    0.3558   -0.4155 C   0  0  0  0  0  0  0  0  0  0  0  0
   -6.7047   -0.1387   -1.7169 C   0  0  0  0  0  0  0  0  0  0  0  0
   -5.4668   -0.5562   -2.2161 C   0  0  0  0  0  0  0  0  0  0  0  0
   -4.3124   -0.4812   -1.4102 C   0  0  0  0  0  0  0  0  0  0  0  0
   -3.0547   -0.8952   -1.8824 C   0  0  0  0  0  0  0  0  0  0  0  0
   -2.9579   -1.3647   -3.0509 O   0  0  0  0  0  0  0  0  0  0  0  0
  1  2  1  0
  2  3  1  0
  2  4  1  0
  4  5  4  0
  5  6  1  0
  6  7  4  0
  7  8  4  0
  8  9  4  0
  9 10  1  0
 10 11  1  0
 11 12  4  0
 12 13  4  0
 13 14  4  0
 14 15  1  0
 15 16  1  0
 16 17  1  0
 16 18  1  0
 16 19  1  0
 14 20  4  0
 20 21  4  0
  9 22  4  0
  5 23  4  0
 23 24  4  0
 24 25  4  0
 25 26  4  0
 26 27  4  0
 27 28  4  0
 28 29  4  0
 29 30  4  0
 30 31  2  0
 21 11  4  0
 22  6  4  0
 29 24  4  0
 30  4  4  0
M  END
>  <SMILES>  (25) 
CC(C)c4c(c2cnn(Cc1ccc(OC(F)(F)F)cc1)c2)[nH]c3ccccc3c4=O

>  <NumConformers>  (25) 
34

>  <EnergyUnits>  (25) 
RDKit_forcefield

>  <Processing_Time>  (25) 
90.2s

>  <Original_Conformers>  (25) 
500

>  <Total_Conformers>  (25) 
34

>  <Energy>  (25) 
98.861529299526254

>  <Energy_Unit>  (25) 
RDKit_forcefield

>  <Rank>  (25) 
25

>  <Conformer_Index>  (25) 
24

$$$$
WDH-2G-6
     RDKit          3D

 31 34  0  0  0  0  0  0  0  0999 V2000
   -1.4741   -3.7916   -1.3885 C   0  0  0  0  0  0  0  0  0  0  0  0
   -1.8121   -3.0769   -0.0718 C   0  0  0  0  0  0  0  0  0  0  0  0
   -2.6977   -3.9451    0.8330 C   0  0  0  0  0  0  0  0  0  0  0  0
   -2.4194   -1.6866   -0.3131 C   0  0  0  0  0  0  0  0  0  0  0  0
   -1.7845   -0.5167    0.1812 C   0  0  0  0  0  0  0  0  0  0  0  0
   -0.5861   -0.5844    1.0298 C   0  0  0  0  0  0  0  0  0  0  0  0
   -0.5493   -0.7182    2.4037 C   0  0  0  0  0  0  0  0  0  0  0  0
    0.7359   -0.7921    2.8021 N   0  0  0  0  0  0  0  0  0  0  0  0
    1.4980   -0.6877    1.7243 N   0  0  0  0  0  0  0  0  0  0  0  0
    2.9473   -0.8622    1.7447 C   0  0  0  0  0  0  0  0  0  0  0  0
    3.6477    0.2888    1.0715 C   0  0  0  0  0  0  0  0  0  0  0  0
    4.4726    0.0669   -0.0415 C   0  0  0  0  0  0  0  0  0  0  0  0
    5.1910    1.1217   -0.6100 C   0  0  0  0  0  0  0  0  0  0  0  0
    5.1019    2.4144   -0.0816 C   0  0  0  0  0  0  0  0  0  0  0  0
    5.8862    3.4244   -0.6615 O   0  0  0  0  0  0  0  0  0  0  0  0
    5.9929    4.7637   -0.1873 C   0  0  0  0  0  0  0  0  0  0  0  0
    6.9483    5.4232   -0.9372 F   0  0  0  0  0  0  0  0  0  0  0  0
    4.7813    5.4199   -0.3263 F   0  0  0  0  0  0  0  0  0  0  0  0
    6.3823    4.7712    1.1386 F   0  0  0  0  0  0  0  0  0  0  0  0
    4.2475    2.6450    1.0155 C   0  0  0  0  0  0  0  0  0  0  0  0
    3.5335    1.5882    1.5886 C   0  0  0  0  0  0  0  0  0  0  0  0
    0.7285   -0.5733    0.6230 C   0  0  0  0  0  0  0  0  0  0  0  0
   -2.2931    0.7140   -0.1060 N   0  0  0  0  0  0  0  0  0  0  0  0
   -3.4192    0.8803   -0.8504 C   0  0  0  0  0  0  0  0  0  0  0  0
   -3.9029    2.1703   -1.1267 C   0  0  0  0  0  0  0  0  0  0  0  0
   -5.0557    2.3423   -1.8938 C   0  0  0  0  0  0  0  0  0  0  0  0
   -5.7389    1.2296   -2.3885 C   0  0  0  0  0  0  0  0  0  0  0  0
   -5.2761   -0.0594   -2.1140 C   0  0  0  0  0  0  0  0  0  0  0  0
   -4.1108   -0.2466   -1.3438 C   0  0  0  0  0  0  0  0  0  0  0  0
   -3.6109   -1.5302   -1.0643 C   0  0  0  0  0  0  0  0  0  0  0  0
   -4.2324   -2.5417   -1.4887 O   0  0  0  0  0  0  0  0  0  0  0  0
  1  2  1  0
  2  3  1  0
  2  4  1  0
  4  5  4  0
  5  6  1  0
  6  7  4  0
  7  8  4  0
  8  9  4  0
  9 10  1  0
 10 11  1  0
 11 12  4  0
 12 13  4  0
 13 14  4  0
 14 15  1  0
 15 16  1  0
 16 17  1  0
 16 18  1  0
 16 19  1  0
 14 20  4  0
 20 21  4  0
  9 22  4  0
  5 23  4  0
 23 24  4  0
 24 25  4  0
 25 26  4  0
 26 27  4  0
 27 28  4  0
 28 29  4  0
 29 30  4  0
 30 31  2  0
 21 11  4  0
 22  6  4  0
 29 24  4  0
 30  4  4  0
M  END
>  <SMILES>  (26) 
CC(C)c4c(c2cnn(Cc1ccc(OC(F)(F)F)cc1)c2)[nH]c3ccccc3c4=O

>  <NumConformers>  (26) 
34

>  <EnergyUnits>  (26) 
RDKit_forcefield

>  <Processing_Time>  (26) 
90.2s

>  <Original_Conformers>  (26) 
500

>  <Total_Conformers>  (26) 
34

>  <Energy>  (26) 
98.880928401759007

>  <Energy_Unit>  (26) 
RDKit_forcefield

>  <Rank>  (26) 
26

>  <Conformer_Index>  (26) 
25

$$$$
WDH-2G-6
     RDKit          3D

 31 34  0  0  0  0  0  0  0  0999 V2000
    0.4129    0.9546   -1.5275 C   0  0  0  0  0  0  0  0  0  0  0  0
   -0.7553    1.4135   -0.6478 C   0  0  0  0  0  0  0  0  0  0  0  0
   -0.2741    1.8553    0.7423 C   0  0  0  0  0  0  0  0  0  0  0  0
   -1.9087    0.3913   -0.6404 C   0  0  0  0  0  0  0  0  0  0  0  0
   -1.9669   -0.7421    0.2238 C   0  0  0  0  0  0  0  0  0  0  0  0
   -0.8810   -1.0925    1.1505 C   0  0  0  0  0  0  0  0  0  0  0  0
   -0.8557   -0.8928    2.5175 C   0  0  0  0  0  0  0  0  0  0  0  0
    0.3412   -1.2877    2.9948 N   0  0  0  0  0  0  0  0  0  0  0  0
    1.0394   -1.7691    1.9765 N   0  0  0  0  0  0  0  0  0  0  0  0
    2.4542   -2.1181    2.0542 C   0  0  0  0  0  0  0  0  0  0  0  0
    3.2637   -1.0622    1.3481 C   0  0  0  0  0  0  0  0  0  0  0  0
    3.3396    0.2325    1.8829 C   0  0  0  0  0  0  0  0  0  0  0  0
    3.9683    1.2559    1.1693 C   0  0  0  0  0  0  0  0  0  0  0  0
    4.5382    0.9961   -0.0920 C   0  0  0  0  0  0  0  0  0  0  0  0
    5.1652    1.9906   -0.8597 O   0  0  0  0  0  0  0  0  0  0  0  0
    5.1810    3.3817   -0.5515 C   0  0  0  0  0  0  0  0  0  0  0  0
    3.8876    3.8535   -0.4190 F   0  0  0  0  0  0  0  0  0  0  0  0
    5.8864    3.6030    0.6175 F   0  0  0  0  0  0  0  0  0  0  0  0
    5.8007    4.0624   -1.5821 F   0  0  0  0  0  0  0  0  0  0  0  0
    4.4787   -0.3020   -0.6120 C   0  0  0  0  0  0  0  0  0  0  0  0
    3.8385   -1.3233    0.0950 C   0  0  0  0  0  0  0  0  0  0  0  0
    0.3203   -1.6857    0.8413 C   0  0  0  0  0  0  0  0  0  0  0  0
   -3.0644   -1.5509    0.2201 N   0  0  0  0  0  0  0  0  0  0  0  0
   -4.1106   -1.3563   -0.6268 C   0  0  0  0  0  0  0  0  0  0  0  0
   -5.2188   -2.2195   -0.5929 C   0  0  0  0  0  0  0  0  0  0  0  0
   -6.2868   -2.0309   -1.4723 C   0  0  0  0  0  0  0  0  0  0  0  0
   -6.2572   -0.9834   -2.3937 C   0  0  0  0  0  0  0  0  0  0  0  0
   -5.1622   -0.1156   -2.4362 C   0  0  0  0  0  0  0  0  0  0  0  0
   -4.0807   -0.2915   -1.5496 C   0  0  0  0  0  0  0  0  0  0  0  0
   -2.9737    0.5734   -1.5570 C   0  0  0  0  0  0  0  0  0  0  0  0
   -2.9344    1.5201   -2.3921 O   0  0  0  0  0  0  0  0  0  0  0  0
  1  2  1  0
  2  3  1  0
  2  4  1  0
  4  5  4  0
  5  6  1  0
  6  7  4  0
  7  8  4  0
  8  9  4  0
  9 10  1  0
 10 11  1  0
 11 12  4  0
 12 13  4  0
 13 14  4  0
 14 15  1  0
 15 16  1  0
 16 17  1  0
 16 18  1  0
 16 19  1  0
 14 20  4  0
 20 21  4  0
  9 22  4  0
  5 23  4  0
 23 24  4  0
 24 25  4  0
 25 26  4  0
 26 27  4  0
 27 28  4  0
 28 29  4  0
 29 30  4  0
 30 31  2  0
 21 11  4  0
 22  6  4  0
 29 24  4  0
 30  4  4  0
M  END
>  <SMILES>  (27) 
CC(C)c4c(c2cnn(Cc1ccc(OC(F)(F)F)cc1)c2)[nH]c3ccccc3c4=O

>  <NumConformers>  (27) 
34

>  <EnergyUnits>  (27) 
RDKit_forcefield

>  <Processing_Time>  (27) 
90.2s

>  <Original_Conformers>  (27) 
500

>  <Total_Conformers>  (27) 
34

>  <Energy>  (27) 
99.017722961442345

>  <Energy_Unit>  (27) 
RDKit_forcefield

>  <Rank>  (27) 
27

>  <Conformer_Index>  (27) 
26

$$$$
WDH-2G-6
     RDKit          3D

 31 34  0  0  0  0  0  0  0  0999 V2000
   -1.4035   -3.8944   -0.0431 C   0  0  0  0  0  0  0  0  0  0  0  0
   -2.5088   -3.0818    0.6381 C   0  0  0  0  0  0  0  0  0  0  0  0
   -2.3137   -3.0201    2.1610 C   0  0  0  0  0  0  0  0  0  0  0  0
   -2.6921   -1.7078   -0.0265 C   0  0  0  0  0  0  0  0  0  0  0  0
   -1.8143   -0.6076    0.1932 C   0  0  0  0  0  0  0  0  0  0  0  0
   -0.6341   -0.6943    1.0664 C   0  0  0  0  0  0  0  0  0  0  0  0
   -0.5121   -0.1680    2.3386 C   0  0  0  0  0  0  0  0  0  0  0  0
    0.7753   -0.2487    2.7285 N   0  0  0  0  0  0  0  0  0  0  0  0
    1.4597   -0.7968    1.7356 N   0  0  0  0  0  0  0  0  0  0  0  0
    2.9091   -0.9581    1.7412 C   0  0  0  0  0  0  0  0  0  0  0  0
    3.5621    0.2765    1.1854 C   0  0  0  0  0  0  0  0  0  0  0  0
    3.8800    1.3499    2.0301 C   0  0  0  0  0  0  0  0  0  0  0  0
    4.4495    2.5138    1.5063 C   0  0  0  0  0  0  0  0  0  0  0  0
    4.6992    2.6304    0.1337 C   0  0  0  0  0  0  0  0  0  0  0  0
    5.2746    3.8219   -0.3362 O   0  0  0  0  0  0  0  0  0  0  0  0
    5.5938    4.1017   -1.6975 C   0  0  0  0  0  0  0  0  0  0  0  0
    4.4483    4.0689   -2.4725 F   0  0  0  0  0  0  0  0  0  0  0  0
    6.5107    3.1805   -2.1713 F   0  0  0  0  0  0  0  0  0  0  0  0
    6.1494    5.3639   -1.7771 F   0  0  0  0  0  0  0  0  0  0  0  0
    4.3646    1.5586   -0.7168 C   0  0  0  0  0  0  0  0  0  0  0  0
    3.7952    0.3941   -0.1928 C   0  0  0  0  0  0  0  0  0  0  0  0
    0.6436   -1.0492    0.6952 C   0  0  0  0  0  0  0  0  0  0  0  0
   -2.0471    0.5888   -0.4188 N   0  0  0  0  0  0  0  0  0  0  0  0
   -3.0879    0.7805   -1.2729 C   0  0  0  0  0  0  0  0  0  0  0  0
   -3.2827    2.0322   -1.8809 C   0  0  0  0  0  0  0  0  0  0  0  0
   -4.3445    2.2280   -2.7664 C   0  0  0  0  0  0  0  0  0  0  0  0
   -5.2185    1.1787   -3.0539 C   0  0  0  0  0  0  0  0  0  0  0  0
   -5.0365   -0.0706   -2.4554 C   0  0  0  0  0  0  0  0  0  0  0  0
   -3.9701   -0.2816   -1.5576 C   0  0  0  0  0  0  0  0  0  0  0  0
   -3.7625   -1.5262   -0.9376 C   0  0  0  0  0  0  0  0  0  0  0  0
   -4.5391   -2.4862   -1.2027 O   0  0  0  0  0  0  0  0  0  0  0  0
  1  2  1  0
  2  3  1  0
  2  4  1  0
  4  5  4  0
  5  6  1  0
  6  7  4  0
  7  8  4  0
  8  9  4  0
  9 10  1  0
 10 11  1  0
 11 12  4  0
 12 13  4  0
 13 14  4  0
 14 15  1  0
 15 16  1  0
 16 17  1  0
 16 18  1  0
 16 19  1  0
 14 20  4  0
 20 21  4  0
  9 22  4  0
  5 23  4  0
 23 24  4  0
 24 25  4  0
 25 26  4  0
 26 27  4  0
 27 28  4  0
 28 29  4  0
 29 30  4  0
 30 31  2  0
 21 11  4  0
 22  6  4  0
 29 24  4  0
 30  4  4  0
M  END
>  <SMILES>  (28) 
CC(C)c4c(c2cnn(Cc1ccc(OC(F)(F)F)cc1)c2)[nH]c3ccccc3c4=O

>  <NumConformers>  (28) 
34

>  <EnergyUnits>  (28) 
RDKit_forcefield

>  <Processing_Time>  (28) 
90.2s

>  <Original_Conformers>  (28) 
500

>  <Total_Conformers>  (28) 
34

>  <Energy>  (28) 
99.276177338617003

>  <Energy_Unit>  (28) 
RDKit_forcefield

>  <Rank>  (28) 
28

>  <Conformer_Index>  (28) 
27

$$$$
WDH-2G-6
     RDKit          3D

 31 34  0  0  0  0  0  0  0  0999 V2000
   -2.3127   -2.4866    2.4549 C   0  0  0  0  0  0  0  0  0  0  0  0
   -2.6498   -2.8985    1.0184 C   0  0  0  0  0  0  0  0  0  0  0  0
   -1.7020   -3.9924    0.5024 C   0  0  0  0  0  0  0  0  0  0  0  0
   -2.7605   -1.6770    0.0914 C   0  0  0  0  0  0  0  0  0  0  0  0
   -1.6303   -0.9730   -0.4148 C   0  0  0  0  0  0  0  0  0  0  0  0
   -0.2469   -1.3503   -0.0883 C   0  0  0  0  0  0  0  0  0  0  0  0
    0.6398   -2.0158   -0.9136 C   0  0  0  0  0  0  0  0  0  0  0  0
    1.8687   -1.9799   -0.3620 N   0  0  0  0  0  0  0  0  0  0  0  0
    1.7776   -1.3031    0.7730 N   0  0  0  0  0  0  0  0  0  0  0  0
    2.9229   -0.9646    1.6099 C   0  0  0  0  0  0  0  0  0  0  0  0
    3.4801    0.3690    1.1968 C   0  0  0  0  0  0  0  0  0  0  0  0
    4.4124    0.4523    0.1521 C   0  0  0  0  0  0  0  0  0  0  0  0
    4.8992    1.6954   -0.2633 C   0  0  0  0  0  0  0  0  0  0  0  0
    4.4492    2.8779    0.3562 C   0  0  0  0  0  0  0  0  0  0  0  0
    4.9033    4.1525   -0.0195 O   0  0  0  0  0  0  0  0  0  0  0  0
    5.8540    4.4182   -1.0485 C   0  0  0  0  0  0  0  0  0  0  0  0
    7.0594    3.8069   -0.7535 F   0  0  0  0  0  0  0  0  0  0  0  0
    5.3793    3.9629   -2.2655 F   0  0  0  0  0  0  0  0  0  0  0  0
    6.0553    5.7824   -1.1313 F   0  0  0  0  0  0  0  0  0  0  0  0
    3.5075    2.7897    1.3884 C   0  0  0  0  0  0  0  0  0  0  0  0
    3.0205    1.5472    1.8035 C   0  0  0  0  0  0  0  0  0  0  0  0
    0.5146   -0.8746    0.9558 C   0  0  0  0  0  0  0  0  0  0  0  0
   -1.8028    0.0998   -1.2390 N   0  0  0  0  0  0  0  0  0  0  0  0
   -3.0338    0.5579   -1.5916 C   0  0  0  0  0  0  0  0  0  0  0  0
   -3.1580    1.6700   -2.4414 C   0  0  0  0  0  0  0  0  0  0  0  0
   -4.4210    2.1475   -2.7972 C   0  0  0  0  0  0  0  0  0  0  0  0
   -5.5688    1.5219   -2.3088 C   0  0  0  0  0  0  0  0  0  0  0  0
   -5.4591    0.4154   -1.4629 C   0  0  0  0  0  0  0  0  0  0  0  0
   -4.1903   -0.0785   -1.0969 C   0  0  0  0  0  0  0  0  0  0  0  0
   -4.0475   -1.1908   -0.2491 C   0  0  0  0  0  0  0  0  0  0  0  0
   -5.0801   -1.7535    0.2115 O   0  0  0  0  0  0  0  0  0  0  0  0
  1  2  1  0
  2  3  1  0
  2  4  1  0
  4  5  4  0
  5  6  1  0
  6  7  4  0
  7  8  4  0
  8  9  4  0
  9 10  1  0
 10 11  1  0
 11 12  4  0
 12 13  4  0
 13 14  4  0
 14 15  1  0
 15 16  1  0
 16 17  1  0
 16 18  1  0
 16 19  1  0
 14 20  4  0
 20 21  4  0
  9 22  4  0
  5 23  4  0
 23 24  4  0
 24 25  4  0
 25 26  4  0
 26 27  4  0
 27 28  4  0
 28 29  4  0
 29 30  4  0
 30 31  2  0
 21 11  4  0
 22  6  4  0
 29 24  4  0
 30  4  4  0
M  END
>  <SMILES>  (29) 
CC(C)c4c(c2cnn(Cc1ccc(OC(F)(F)F)cc1)c2)[nH]c3ccccc3c4=O

>  <NumConformers>  (29) 
34

>  <EnergyUnits>  (29) 
RDKit_forcefield

>  <Processing_Time>  (29) 
90.2s

>  <Original_Conformers>  (29) 
500

>  <Total_Conformers>  (29) 
34

>  <Energy>  (29) 
99.283948653586179

>  <Energy_Unit>  (29) 
RDKit_forcefield

>  <Rank>  (29) 
29

>  <Conformer_Index>  (29) 
28

$$$$
WDH-2G-6
     RDKit          3D

 31 34  0  0  0  0  0  0  0  0999 V2000
   -2.8484   -2.8470    2.3397 C   0  0  0  0  0  0  0  0  0  0  0  0
   -2.6466   -3.0349    0.8325 C   0  0  0  0  0  0  0  0  0  0  0  0
   -1.3717   -3.8329    0.5226 C   0  0  0  0  0  0  0  0  0  0  0  0
   -2.7375   -1.7030    0.0703 C   0  0  0  0  0  0  0  0  0  0  0  0
   -1.7309   -0.6981    0.1349 C   0  0  0  0  0  0  0  0  0  0  0  0
   -0.5100   -0.8457    0.9414 C   0  0  0  0  0  0  0  0  0  0  0  0
   -0.3017   -0.3596    2.2180 C   0  0  0  0  0  0  0  0  0  0  0  0
    1.0080   -0.4546    2.5198 N   0  0  0  0  0  0  0  0  0  0  0  0
    1.6243   -0.9703    1.4672 N   0  0  0  0  0  0  0  0  0  0  0  0
    3.0709   -1.1305    1.3719 C   0  0  0  0  0  0  0  0  0  0  0  0
    3.6713    0.0620    0.6809 C   0  0  0  0  0  0  0  0  0  0  0  0
    3.9177    0.0321   -0.6995 C   0  0  0  0  0  0  0  0  0  0  0  0
    4.4292    1.1591   -1.3484 C   0  0  0  0  0  0  0  0  0  0  0  0
    4.6899    2.3354   -0.6356 C   0  0  0  0  0  0  0  0  0  0  0  0
    5.1968    3.4386   -1.3407 O   0  0  0  0  0  0  0  0  0  0  0  0
    5.4863    4.7155   -0.7760 C   0  0  0  0  0  0  0  0  0  0  0  0
    4.3408    5.2658   -0.2294 F   0  0  0  0  0  0  0  0  0  0  0  0
    5.9495    5.5514   -1.7734 F   0  0  0  0  0  0  0  0  0  0  0  0
    6.4630    4.5979    0.1961 F   0  0  0  0  0  0  0  0  0  0  0  0
    4.4316    2.3691    0.7489 C   0  0  0  0  0  0  0  0  0  0  0  0
    3.9215    1.2409    1.3985 C   0  0  0  0  0  0  0  0  0  0  0  0
    0.7408   -1.1866    0.4750 C   0  0  0  0  0  0  0  0  0  0  0  0
   -1.8739    0.4626   -0.5667 N   0  0  0  0  0  0  0  0  0  0  0  0
   -2.9655    0.7207   -1.3354 C   0  0  0  0  0  0  0  0  0  0  0  0
   -3.0663    1.9341   -2.0368 C   0  0  0  0  0  0  0  0  0  0  0  0
   -4.1898    2.2033   -2.8213 C   0  0  0  0  0  0  0  0  0  0  0  0
   -5.2204    1.2669   -2.9126 C   0  0  0  0  0  0  0  0  0  0  0  0
   -5.1328    0.0568   -2.2196 C   0  0  0  0  0  0  0  0  0  0  0  0
   -4.0042   -0.2283   -1.4241 C   0  0  0  0  0  0  0  0  0  0  0  0
   -3.8882   -1.4354   -0.7133 C   0  0  0  0  0  0  0  0  0  0  0  0
   -4.8237   -2.2807   -0.7766 O   0  0  0  0  0  0  0  0  0  0  0  0
  1  2  1  0
  2  3  1  0
  2  4  1  0
  4  5  4  0
  5  6  1  0
  6  7  4  0
  7  8  4  0
  8  9  4  0
  9 10  1  0
 10 11  1  0
 11 12  4  0
 12 13  4  0
 13 14  4  0
 14 15  1  0
 15 16  1  0
 16 17  1  0
 16 18  1  0
 16 19  1  0
 14 20  4  0
 20 21  4  0
  9 22  4  0
  5 23  4  0
 23 24  4  0
 24 25  4  0
 25 26  4  0
 26 27  4  0
 27 28  4  0
 28 29  4  0
 29 30  4  0
 30 31  2  0
 21 11  4  0
 22  6  4  0
 29 24  4  0
 30  4  4  0
M  END
>  <SMILES>  (30) 
CC(C)c4c(c2cnn(Cc1ccc(OC(F)(F)F)cc1)c2)[nH]c3ccccc3c4=O

>  <NumConformers>  (30) 
34

>  <EnergyUnits>  (30) 
RDKit_forcefield

>  <Processing_Time>  (30) 
90.2s

>  <Original_Conformers>  (30) 
500

>  <Total_Conformers>  (30) 
34

>  <Energy>  (30) 
99.370237866179693

>  <Energy_Unit>  (30) 
RDKit_forcefield

>  <Rank>  (30) 
30

>  <Conformer_Index>  (30) 
29

$$$$
WDH-2G-6
     RDKit          3D

 31 34  0  0  0  0  0  0  0  0999 V2000
   -2.2470   -2.0231    2.6722 C   0  0  0  0  0  0  0  0  0  0  0  0
   -2.6750   -2.6111    1.3232 C   0  0  0  0  0  0  0  0  0  0  0  0
   -1.8301   -3.8381    0.9437 C   0  0  0  0  0  0  0  0  0  0  0  0
   -2.7459   -1.5285    0.2328 C   0  0  0  0  0  0  0  0  0  0  0  0
   -1.6012   -1.0193   -0.4456 C   0  0  0  0  0  0  0  0  0  0  0  0
   -0.2342   -1.4779   -0.1553 C   0  0  0  0  0  0  0  0  0  0  0  0
    0.5458   -2.2880   -0.9583 C   0  0  0  0  0  0  0  0  0  0  0  0
    1.8048   -2.3058   -0.4786 N   0  0  0  0  0  0  0  0  0  0  0  0
    1.8357   -1.5253    0.5909 N   0  0  0  0  0  0  0  0  0  0  0  0
    3.0523   -1.2114    1.3314 C   0  0  0  0  0  0  0  0  0  0  0  0
    3.6455    0.0720    0.8207 C   0  0  0  0  0  0  0  0  0  0  0  0
    3.3911    1.2841    1.4793 C   0  0  0  0  0  0  0  0  0  0  0  0
    3.9155    2.4816    0.9832 C   0  0  0  0  0  0  0  0  0  0  0  0
    4.6933    2.4843   -0.1917 C   0  0  0  0  0  0  0  0  0  0  0  0
    5.2489    3.6557   -0.7322 O   0  0  0  0  0  0  0  0  0  0  0  0
    5.1452    4.9567   -0.1576 C   0  0  0  0  0  0  0  0  0  0  0  0
    3.8190    5.3491   -0.0996 F   0  0  0  0  0  0  0  0  0  0  0  0
    5.6953    4.9615    1.1126 F   0  0  0  0  0  0  0  0  0  0  0  0
    5.8403    5.8524   -0.9479 F   0  0  0  0  0  0  0  0  0  0  0  0
    4.9274    1.2742   -0.8553 C   0  0  0  0  0  0  0  0  0  0  0  0
    4.4064    0.0766   -0.3571 C   0  0  0  0  0  0  0  0  0  0  0  0
    0.6236   -0.9780    0.7993 C   0  0  0  0  0  0  0  0  0  0  0  0
   -1.7438   -0.0707   -1.4147 N   0  0  0  0  0  0  0  0  0  0  0  0
   -2.9538    0.4504   -1.7533 C   0  0  0  0  0  0  0  0  0  0  0  0
   -3.0467    1.4303   -2.7561 C   0  0  0  0  0  0  0  0  0  0  0  0
   -4.2867    1.9739   -3.0981 C   0  0  0  0  0  0  0  0  0  0  0  0
   -5.4426    1.5449   -2.4436 C   0  0  0  0  0  0  0  0  0  0  0  0
   -5.3639    0.5719   -1.4439 C   0  0  0  0  0  0  0  0  0  0  0  0
   -4.1185    0.0145   -1.0898 C   0  0  0  0  0  0  0  0  0  0  0  0
   -4.0072   -0.9692   -0.0907 C   0  0  0  0  0  0  0  0  0  0  0  0
   -5.0445   -1.3485    0.5217 O   0  0  0  0  0  0  0  0  0  0  0  0
  1  2  1  0
  2  3  1  0
  2  4  1  0
  4  5  4  0
  5  6  1  0
  6  7  4  0
  7  8  4  0
  8  9  4  0
  9 10  1  0
 10 11  1  0
 11 12  4  0
 12 13  4  0
 13 14  4  0
 14 15  1  0
 15 16  1  0
 16 17  1  0
 16 18  1  0
 16 19  1  0
 14 20  4  0
 20 21  4  0
  9 22  4  0
  5 23  4  0
 23 24  4  0
 24 25  4  0
 25 26  4  0
 26 27  4  0
 27 28  4  0
 28 29  4  0
 29 30  4  0
 30 31  2  0
 21 11  4  0
 22  6  4  0
 29 24  4  0
 30  4  4  0
M  END
>  <SMILES>  (31) 
CC(C)c4c(c2cnn(Cc1ccc(OC(F)(F)F)cc1)c2)[nH]c3ccccc3c4=O

>  <NumConformers>  (31) 
34

>  <EnergyUnits>  (31) 
RDKit_forcefield

>  <Processing_Time>  (31) 
90.2s

>  <Original_Conformers>  (31) 
500

>  <Total_Conformers>  (31) 
34

>  <Energy>  (31) 
99.378252747918779

>  <Energy_Unit>  (31) 
RDKit_forcefield

>  <Rank>  (31) 
31

>  <Conformer_Index>  (31) 
30

$$$$
WDH-2G-6
     RDKit          3D

 31 34  0  0  0  0  0  0  0  0999 V2000
   -1.8450   -2.7626    2.2894 C   0  0  0  0  0  0  0  0  0  0  0  0
   -2.6814   -2.9242    1.0106 C   0  0  0  0  0  0  0  0  0  0  0  0
   -2.1858   -4.0948    0.1527 C   0  0  0  0  0  0  0  0  0  0  0  0
   -2.8137   -1.6354    0.1804 C   0  0  0  0  0  0  0  0  0  0  0  0
   -1.6945   -0.8700   -0.2589 C   0  0  0  0  0  0  0  0  0  0  0  0
   -0.3111   -1.2047    0.1122 C   0  0  0  0  0  0  0  0  0  0  0  0
    0.5962   -1.9391   -0.6265 C   0  0  0  0  0  0  0  0  0  0  0  0
    1.8086   -1.8569   -0.0435 N   0  0  0  0  0  0  0  0  0  0  0  0
    1.6880   -1.0827    1.0242 N   0  0  0  0  0  0  0  0  0  0  0  0
    2.8068   -0.6931    1.8755 C   0  0  0  0  0  0  0  0  0  0  0  0
    3.6212    0.3706    1.1937 C   0  0  0  0  0  0  0  0  0  0  0  0
    3.1646    1.6969    1.1670 C   0  0  0  0  0  0  0  0  0  0  0  0
    3.8950    2.6828    0.4961 C   0  0  0  0  0  0  0  0  0  0  0  0
    5.0946    2.3521   -0.1646 C   0  0  0  0  0  0  0  0  0  0  0  0
    5.8660    3.2991   -0.8583 O   0  0  0  0  0  0  0  0  0  0  0  0
    5.5420    4.6800   -1.0060 C   0  0  0  0  0  0  0  0  0  0  0  0
    6.5223    5.2907   -1.7639 F   0  0  0  0  0  0  0  0  0  0  0  0
    4.3271    4.8182   -1.6530 F   0  0  0  0  0  0  0  0  0  0  0  0
    5.4899    5.2926    0.2342 F   0  0  0  0  0  0  0  0  0  0  0  0
    5.5433    1.0263   -0.1387 C   0  0  0  0  0  0  0  0  0  0  0  0
    4.8109    0.0395    0.5280 C   0  0  0  0  0  0  0  0  0  0  0  0
    0.4220   -0.6387    1.1318 C   0  0  0  0  0  0  0  0  0  0  0  0
   -1.8806    0.2321   -1.0414 N   0  0  0  0  0  0  0  0  0  0  0  0
   -3.1151    0.6521   -1.4281 C   0  0  0  0  0  0  0  0  0  0  0  0
   -3.2542    1.7982   -2.2288 C   0  0  0  0  0  0  0  0  0  0  0  0
   -4.5211    2.2340   -2.6233 C   0  0  0  0  0  0  0  0  0  0  0  0
   -5.6580    1.5304   -2.2240 C   0  0  0  0  0  0  0  0  0  0  0  0
   -5.5335    0.3856   -1.4317 C   0  0  0  0  0  0  0  0  0  0  0  0
   -4.2605   -0.0645   -1.0258 C   0  0  0  0  0  0  0  0  0  0  0  0
   -4.1030   -1.2163   -0.2335 C   0  0  0  0  0  0  0  0  0  0  0  0
   -5.1241   -1.8815    0.1000 O   0  0  0  0  0  0  0  0  0  0  0  0
  1  2  1  0
  2  3  1  0
  2  4  1  0
  4  5  4  0
  5  6  1  0
  6  7  4  0
  7  8  4  0
  8  9  4  0
  9 10  1  0
 10 11  1  0
 11 12  4  0
 12 13  4  0
 13 14  4  0
 14 15  1  0
 15 16  1  0
 16 17  1  0
 16 18  1  0
 16 19  1  0
 14 20  4  0
 20 21  4  0
  9 22  4  0
  5 23  4  0
 23 24  4  0
 24 25  4  0
 25 26  4  0
 26 27  4  0
 27 28  4  0
 28 29  4  0
 29 30  4  0
 30 31  2  0
 21 11  4  0
 22  6  4  0
 29 24  4  0
 30  4  4  0
M  END
>  <SMILES>  (32) 
CC(C)c4c(c2cnn(Cc1ccc(OC(F)(F)F)cc1)c2)[nH]c3ccccc3c4=O

>  <NumConformers>  (32) 
34

>  <EnergyUnits>  (32) 
RDKit_forcefield

>  <Processing_Time>  (32) 
90.2s

>  <Original_Conformers>  (32) 
500

>  <Total_Conformers>  (32) 
34

>  <Energy>  (32) 
99.595359497674622

>  <Energy_Unit>  (32) 
RDKit_forcefield

>  <Rank>  (32) 
32

>  <Conformer_Index>  (32) 
31

$$$$
WDH-2G-6
     RDKit          3D

 31 34  0  0  0  0  0  0  0  0999 V2000
   -1.6160   -4.0547    0.1108 C   0  0  0  0  0  0  0  0  0  0  0  0
   -2.6217   -3.1133    0.7895 C   0  0  0  0  0  0  0  0  0  0  0  0
   -2.2563   -2.8540    2.2565 C   0  0  0  0  0  0  0  0  0  0  0  0
   -2.8551   -1.8035    0.0193 C   0  0  0  0  0  0  0  0  0  0  0  0
   -1.8113   -0.8834   -0.2852 C   0  0  0  0  0  0  0  0  0  0  0  0
   -0.4037   -1.1350    0.0623 C   0  0  0  0  0  0  0  0  0  0  0  0
    0.5555   -1.7221   -0.7422 C   0  0  0  0  0  0  0  0  0  0  0  0
    1.7669   -1.5643   -0.1724 N   0  0  0  0  0  0  0  0  0  0  0  0
    1.5960   -0.8755    0.9468 N   0  0  0  0  0  0  0  0  0  0  0  0
    2.6902   -0.4462    1.8116 C   0  0  0  0  0  0  0  0  0  0  0  0
    3.4388    0.6904    1.1706 C   0  0  0  0  0  0  0  0  0  0  0  0
    4.7322    0.4977    0.6594 C   0  0  0  0  0  0  0  0  0  0  0  0
    5.4161    1.5544    0.0520 C   0  0  0  0  0  0  0  0  0  0  0  0
    4.8116    2.8224   -0.0590 C   0  0  0  0  0  0  0  0  0  0  0  0
    5.4500    3.9182   -0.6618 O   0  0  0  0  0  0  0  0  0  0  0  0
    6.7640    3.9009   -1.2176 C   0  0  0  0  0  0  0  0  0  0  0  0
    7.0537    5.1552   -1.7208 F   0  0  0  0  0  0  0  0  0  0  0  0
    7.6891    3.5893   -0.2352 F   0  0  0  0  0  0  0  0  0  0  0  0
    6.8390    2.9777   -2.2487 F   0  0  0  0  0  0  0  0  0  0  0  0
    3.5207    3.0082    0.4496 C   0  0  0  0  0  0  0  0  0  0  0  0
    2.8383    1.9527    1.0602 C   0  0  0  0  0  0  0  0  0  0  0  0
    0.2951   -0.5702    1.1062 C   0  0  0  0  0  0  0  0  0  0  0  0
   -2.0965    0.2976   -0.9067 N   0  0  0  0  0  0  0  0  0  0  0  0
   -3.3608    0.6452   -1.2682 C   0  0  0  0  0  0  0  0  0  0  0  0
   -3.6039    1.8807   -1.8941 C   0  0  0  0  0  0  0  0  0  0  0  0
   -4.9018    2.2417   -2.2610 C   0  0  0  0  0  0  0  0  0  0  0  0
   -5.9667    1.3751   -2.0100 C   0  0  0  0  0  0  0  0  0  0  0  0
   -5.7392    0.1464   -1.3843 C   0  0  0  0  0  0  0  0  0  0  0  0
   -4.4338   -0.2302   -1.0051 C   0  0  0  0  0  0  0  0  0  0  0  0
   -4.1760   -1.4506   -0.3551 C   0  0  0  0  0  0  0  0  0  0  0  0
   -5.1373   -2.2281   -0.0996 O   0  0  0  0  0  0  0  0  0  0  0  0
  1  2  1  0
  2  3  1  0
  2  4  1  0
  4  5  4  0
  5  6  1  0
  6  7  4  0
  7  8  4  0
  8  9  4  0
  9 10  1  0
 10 11  1  0
 11 12  4  0
 12 13  4  0
 13 14  4  0
 14 15  1  0
 15 16  1  0
 16 17  1  0
 16 18  1  0
 16 19  1  0
 14 20  4  0
 20 21  4  0
  9 22  4  0
  5 23  4  0
 23 24  4  0
 24 25  4  0
 25 26  4  0
 26 27  4  0
 27 28  4  0
 28 29  4  0
 29 30  4  0
 30 31  2  0
 21 11  4  0
 22  6  4  0
 29 24  4  0
 30  4  4  0
M  END
>  <SMILES>  (33) 
CC(C)c4c(c2cnn(Cc1ccc(OC(F)(F)F)cc1)c2)[nH]c3ccccc3c4=O

>  <NumConformers>  (33) 
34

>  <EnergyUnits>  (33) 
RDKit_forcefield

>  <Processing_Time>  (33) 
90.2s

>  <Original_Conformers>  (33) 
500

>  <Total_Conformers>  (33) 
34

>  <Energy>  (33) 
99.912299700562812

>  <Energy_Unit>  (33) 
RDKit_forcefield

>  <Rank>  (33) 
33

>  <Conformer_Index>  (33) 
32

$$$$
WDH-2G-6
     RDKit          3D

 31 34  0  0  0  0  0  0  0  0999 V2000
   -1.8041   -3.9359    0.1762 C   0  0  0  0  0  0  0  0  0  0  0  0
   -2.6973   -3.0063    1.0068 C   0  0  0  0  0  0  0  0  0  0  0  0
   -2.2053   -2.8846    2.4568 C   0  0  0  0  0  0  0  0  0  0  0  0
   -2.9069   -1.6502    0.3173 C   0  0  0  0  0  0  0  0  0  0  0  0
   -1.8720   -0.6829    0.1751 C   0  0  0  0  0  0  0  0  0  0  0  0
   -0.5145   -0.8881    0.7046 C   0  0  0  0  0  0  0  0  0  0  0  0
   -0.0336   -0.4719    1.9339 C   0  0  0  0  0  0  0  0  0  0  0  0
    1.3079   -0.6050    1.9533 N   0  0  0  0  0  0  0  0  0  0  0  0
    1.6792   -1.0725    0.7702 N   0  0  0  0  0  0  0  0  0  0  0  0
    3.0708   -1.2617    0.3700 C   0  0  0  0  0  0  0  0  0  0  0  0
    3.6974    0.0654    0.0385 C   0  0  0  0  0  0  0  0  0  0  0  0
    4.6481    0.6421    0.8945 C   0  0  0  0  0  0  0  0  0  0  0  0
    5.2099    1.8867    0.5926 C   0  0  0  0  0  0  0  0  0  0  0  0
    4.8153    2.5817   -0.5675 C   0  0  0  0  0  0  0  0  0  0  0  0
    5.3335    3.8399   -0.9141 O   0  0  0  0  0  0  0  0  0  0  0  0
    6.3464    4.5397   -0.1948 C   0  0  0  0  0  0  0  0  0  0  0  0
    5.9253    4.8047    1.0938 F   0  0  0  0  0  0  0  0  0  0  0  0
    7.5087    3.7914   -0.1660 F   0  0  0  0  0  0  0  0  0  0  0  0
    6.6031    5.7377   -0.8352 F   0  0  0  0  0  0  0  0  0  0  0  0
    3.8635    2.0047   -1.4144 C   0  0  0  0  0  0  0  0  0  0  0  0
    3.3093    0.7562   -1.1180 C   0  0  0  0  0  0  0  0  0  0  0  0
    0.6035   -1.2229   -0.0263 C   0  0  0  0  0  0  0  0  0  0  0  0
   -2.1085    0.4825   -0.4920 N   0  0  0  0  0  0  0  0  0  0  0  0
   -3.3195    0.7788   -1.0338 C   0  0  0  0  0  0  0  0  0  0  0  0
   -3.5131    1.9939   -1.7126 C   0  0  0  0  0  0  0  0  0  0  0  0
   -4.7561    2.2990   -2.2719 C   0  0  0  0  0  0  0  0  0  0  0  0
   -5.8139    1.3959   -2.1605 C   0  0  0  0  0  0  0  0  0  0  0  0
   -5.6328    0.1818   -1.4929 C   0  0  0  0  0  0  0  0  0  0  0  0
   -4.3836   -0.1385   -0.9232 C   0  0  0  0  0  0  0  0  0  0  0  0
   -4.1689   -1.3549   -0.2542 C   0  0  0  0  0  0  0  0  0  0  0  0
   -5.1125   -2.1890   -0.1718 O   0  0  0  0  0  0  0  0  0  0  0  0
  1  2  1  0
  2  3  1  0
  2  4  1  0
  4  5  4  0
  5  6  1  0
  6  7  4  0
  7  8  4  0
  8  9  4  0
  9 10  1  0
 10 11  1  0
 11 12  4  0
 12 13  4  0
 13 14  4  0
 14 15  1  0
 15 16  1  0
 16 17  1  0
 16 18  1  0
 16 19  1  0
 14 20  4  0
 20 21  4  0
  9 22  4  0
  5 23  4  0
 23 24  4  0
 24 25  4  0
 25 26  4  0
 26 27  4  0
 27 28  4  0
 28 29  4  0
 29 30  4  0
 30 31  2  0
 21 11  4  0
 22  6  4  0
 29 24  4  0
 30  4  4  0
M  END
>  <SMILES>  (34) 
CC(C)c4c(c2cnn(Cc1ccc(OC(F)(F)F)cc1)c2)[nH]c3ccccc3c4=O

>  <NumConformers>  (34) 
34

>  <EnergyUnits>  (34) 
RDKit_forcefield

>  <Processing_Time>  (34) 
90.2s

>  <Original_Conformers>  (34) 
500

>  <Total_Conformers>  (34) 
34

>  <Energy>  (34) 
99.92255373299291

>  <Energy_Unit>  (34) 
RDKit_forcefield

>  <Rank>  (34) 
34

>  <Conformer_Index>  (34) 
33

$$$$
