WDH-2A-9
     RDKit          3D

 29 32  0  0  0  0  0  0  0  0999 V2000
    0.6199    0.4946    1.9025 C   0  0  0  0  0  0  0  0  0  0  0  0
    1.9915    0.3299    1.2865 C   0  0  0  0  0  0  0  0  0  0  0  0
    2.1578    0.0053   -0.0844 C   0  0  0  0  0  0  0  0  0  0  0  0
    1.0073   -0.1179   -1.0092 C   0  0  0  0  0  0  0  0  0  0  0  0
    0.8257   -1.0863   -1.9810 C   0  0  0  0  0  0  0  0  0  0  0  0
   -0.3196   -0.8399   -2.6466 N   0  0  0  0  0  0  0  0  0  0  0  0
   -0.8449    0.2655   -2.1416 N   0  0  0  0  0  0  0  0  0  0  0  0
   -2.1270    0.8214   -2.5589 C   0  0  0  0  0  0  0  0  0  0  0  0
   -3.2192    0.3048   -1.6647 C   0  0  0  0  0  0  0  0  0  0  0  0
   -3.5375    0.9784   -0.4760 C   0  0  0  0  0  0  0  0  0  0  0  0
   -4.5184    0.4727    0.3822 C   0  0  0  0  0  0  0  0  0  0  0  0
   -5.1893   -0.7251    0.0668 C   0  0  0  0  0  0  0  0  0  0  0  0
   -6.1820   -1.2794    0.8910 O   0  0  0  0  0  0  0  0  0  0  0  0
   -6.6340   -0.7236    2.1239 C   0  0  0  0  0  0  0  0  0  0  0  0
   -5.5868   -0.6463    3.0245 F   0  0  0  0  0  0  0  0  0  0  0  0
   -7.1683    0.5348    1.9123 F   0  0  0  0  0  0  0  0  0  0  0  0
   -7.6151   -1.5408    2.6510 F   0  0  0  0  0  0  0  0  0  0  0  0
   -4.8575   -1.4008   -1.1137 C   0  0  0  0  0  0  0  0  0  0  0  0
   -3.8760   -0.8958   -1.9712 C   0  0  0  0  0  0  0  0  0  0  0  0
   -0.0698    0.7346   -1.1465 C   0  0  0  0  0  0  0  0  0  0  0  0
    3.4113   -0.2078   -0.5818 N   0  0  0  0  0  0  0  0  0  0  0  0
    4.5302   -0.0713    0.1830 C   0  0  0  0  0  0  0  0  0  0  0  0
    5.8007   -0.2870   -0.3769 C   0  0  0  0  0  0  0  0  0  0  0  0
    6.9497   -0.1350    0.4022 C   0  0  0  0  0  0  0  0  0  0  0  0
    6.8425    0.2342    1.7439 C   0  0  0  0  0  0  0  0  0  0  0  0
    5.5857    0.4521    2.3144 C   0  0  0  0  0  0  0  0  0  0  0  0
    4.4178    0.3007    1.5406 C   0  0  0  0  0  0  0  0  0  0  0  0
    3.1390    0.5051    2.0865 C   0  0  0  0  0  0  0  0  0  0  0  0
    3.0179    0.8427    3.2974 O   0  0  0  0  0  0  0  0  0  0  0  0
  1  2  1  0
  2  3  4  0
  3  4  1  0
  4  5  4  0
  5  6  4  0
  6  7  4  0
  7  8  1  0
  8  9  1  0
  9 10  4  0
 10 11  4  0
 11 12  4  0
 12 13  1  0
 13 14  1  0
 14 15  1  0
 14 16  1  0
 14 17  1  0
 12 18  4  0
 18 19  4  0
  7 20  4  0
  3 21  4  0
 21 22  4  0
 22 23  4  0
 23 24  4  0
 24 25  4  0
 25 26  4  0
 26 27  4  0
 27 28  4  0
 28 29  2  0
 19  9  4  0
 20  4  4  0
 27 22  4  0
 28  2  4  0
M  END
>  <SMILES>  (1) 
Cc4c(c2cnn(Cc1ccc(OC(F)(F)F)cc1)c2)[nH]c3ccccc3c4=O

>  <NumConformers>  (1) 
15

>  <EnergyUnits>  (1) 
RDKit_forcefield

>  <Processing_Time>  (1) 
31.1s

>  <Original_Conformers>  (1) 
500

>  <Total_Conformers>  (1) 
15

>  <Energy>  (1) 
89.502037226254089

>  <Energy_Unit>  (1) 
RDKit_forcefield

>  <Rank>  (1) 
1

>  <Conformer_Index>  (1) 
0

$$$$
WDH-2A-9
     RDKit          3D

 29 32  0  0  0  0  0  0  0  0999 V2000
    0.6620   -0.6962    1.8187 C   0  0  0  0  0  0  0  0  0  0  0  0
    2.0155   -0.3510    1.2385 C   0  0  0  0  0  0  0  0  0  0  0  0
    2.1519    0.1732   -0.0726 C   0  0  0  0  0  0  0  0  0  0  0  0
    0.9910    0.3436   -0.9767 C   0  0  0  0  0  0  0  0  0  0  0  0
    0.7371    1.4233   -1.8042 C   0  0  0  0  0  0  0  0  0  0  0  0
   -0.3914    1.1928   -2.5035 N   0  0  0  0  0  0  0  0  0  0  0  0
   -0.8353   -0.0066   -2.1608 N   0  0  0  0  0  0  0  0  0  0  0  0
   -2.0772   -0.5872   -2.6582 C   0  0  0  0  0  0  0  0  0  0  0  0
   -3.1986   -0.2788   -1.7058 C   0  0  0  0  0  0  0  0  0  0  0  0
   -3.4629   -1.1329   -0.6247 C   0  0  0  0  0  0  0  0  0  0  0  0
   -4.4727   -0.8225    0.2910 C   0  0  0  0  0  0  0  0  0  0  0  0
   -5.2276    0.3576    0.1430 C   0  0  0  0  0  0  0  0  0  0  0  0
   -6.2526    0.7200    1.0318 O   0  0  0  0  0  0  0  0  0  0  0  0
   -6.6584   -0.0334    2.1725 C   0  0  0  0  0  0  0  0  0  0  0  0
   -7.6918    0.6311    2.8039 F   0  0  0  0  0  0  0  0  0  0  0  0
   -5.6039   -0.1622    3.0586 F   0  0  0  0  0  0  0  0  0  0  0  0
   -7.1040   -1.2841    1.7841 F   0  0  0  0  0  0  0  0  0  0  0  0
   -4.9498    1.2135   -0.9295 C   0  0  0  0  0  0  0  0  0  0  0  0
   -3.9396    0.9037   -1.8444 C   0  0  0  0  0  0  0  0  0  0  0  0
   -0.0243   -0.5548   -1.2373 C   0  0  0  0  0  0  0  0  0  0  0  0
    3.3848    0.5413   -0.5291 N   0  0  0  0  0  0  0  0  0  0  0  0
    4.5143    0.3780    0.2147 C   0  0  0  0  0  0  0  0  0  0  0  0
    5.7637    0.7586   -0.3033 C   0  0  0  0  0  0  0  0  0  0  0  0
    6.9244    0.5801    0.4526 C   0  0  0  0  0  0  0  0  0  0  0  0
    6.8500    0.0200    1.7289 C   0  0  0  0  0  0  0  0  0  0  0  0
    5.6145   -0.3632    2.2569 C   0  0  0  0  0  0  0  0  0  0  0  0
    4.4351   -0.1873    1.5063 C   0  0  0  0  0  0  0  0  0  0  0  0
    3.1765   -0.5554    2.0119 C   0  0  0  0  0  0  0  0  0  0  0  0
    3.0854   -1.0669    3.1630 O   0  0  0  0  0  0  0  0  0  0  0  0
  1  2  1  0
  2  3  4  0
  3  4  1  0
  4  5  4  0
  5  6  4  0
  6  7  4  0
  7  8  1  0
  8  9  1  0
  9 10  4  0
 10 11  4  0
 11 12  4  0
 12 13  1  0
 13 14  1  0
 14 15  1  0
 14 16  1  0
 14 17  1  0
 12 18  4  0
 18 19  4  0
  7 20  4  0
  3 21  4  0
 21 22  4  0
 22 23  4  0
 23 24  4  0
 24 25  4  0
 25 26  4  0
 26 27  4  0
 27 28  4  0
 28 29  2  0
 19  9  4  0
 20  4  4  0
 27 22  4  0
 28  2  4  0
M  END
>  <SMILES>  (2) 
Cc4c(c2cnn(Cc1ccc(OC(F)(F)F)cc1)c2)[nH]c3ccccc3c4=O

>  <NumConformers>  (2) 
15

>  <EnergyUnits>  (2) 
RDKit_forcefield

>  <Processing_Time>  (2) 
31.1s

>  <Original_Conformers>  (2) 
500

>  <Total_Conformers>  (2) 
15

>  <Energy>  (2) 
89.502037233574143

>  <Energy_Unit>  (2) 
RDKit_forcefield

>  <Rank>  (2) 
2

>  <Conformer_Index>  (2) 
1

$$$$
WDH-2A-9
     RDKit          3D

 29 32  0  0  0  0  0  0  0  0999 V2000
    0.8465   -1.0537    1.7929 C   0  0  0  0  0  0  0  0  0  0  0  0
    2.1470   -0.5406    1.2157 C   0  0  0  0  0  0  0  0  0  0  0  0
    2.1913    0.1465   -0.0246 C   0  0  0  0  0  0  0  0  0  0  0  0
    0.9847    0.3371   -0.8623 C   0  0  0  0  0  0  0  0  0  0  0  0
    0.6218    1.4863   -1.5426 C   0  0  0  0  0  0  0  0  0  0  0  0
   -0.5153    1.2576   -2.2284 N   0  0  0  0  0  0  0  0  0  0  0  0
   -0.8594   -0.0041   -2.0212 N   0  0  0  0  0  0  0  0  0  0  0  0
   -2.0761   -0.6124   -2.5471 C   0  0  0  0  0  0  0  0  0  0  0  0
   -3.1780   -0.5039   -1.5304 C   0  0  0  0  0  0  0  0  0  0  0  0
   -3.3439   -1.5014   -0.5584 C   0  0  0  0  0  0  0  0  0  0  0  0
   -4.3374   -1.3769    0.4166 C   0  0  0  0  0  0  0  0  0  0  0  0
   -5.1717   -0.2531    0.4450 C   0  0  0  0  0  0  0  0  0  0  0  0
   -6.1527   -0.1812    1.4472 O   0  0  0  0  0  0  0  0  0  0  0  0
   -7.0780    0.8901    1.6190 C   0  0  0  0  0  0  0  0  0  0  0  0
   -7.8879    0.6131    2.7032 F   0  0  0  0  0  0  0  0  0  0  0  0
   -7.8702    1.0213    0.4926 F   0  0  0  0  0  0  0  0  0  0  0  0
   -6.4000    2.0718    1.8594 F   0  0  0  0  0  0  0  0  0  0  0  0
   -4.9950    0.7559   -0.5221 C   0  0  0  0  0  0  0  0  0  0  0  0
   -4.0007    0.6317   -1.4973 C   0  0  0  0  0  0  0  0  0  0  0  0
    0.0252   -0.5969   -1.1983 C   0  0  0  0  0  0  0  0  0  0  0  0
    3.3752    0.6583   -0.4723 N   0  0  0  0  0  0  0  0  0  0  0  0
    4.5435    0.4917    0.2082 C   0  0  0  0  0  0  0  0  0  0  0  0
    5.7403    1.0245   -0.2996 C   0  0  0  0  0  0  0  0  0  0  0  0
    6.9411    0.8437    0.3901 C   0  0  0  0  0  0  0  0  0  0  0  0
    6.9596    0.1299    1.5894 C   0  0  0  0  0  0  0  0  0  0  0  0
    5.7773   -0.4057    2.1064 C   0  0  0  0  0  0  0  0  0  0  0  0
    4.5581   -0.2295    1.4222 C   0  0  0  0  0  0  0  0  0  0  0  0
    3.3507   -0.7491    1.9195 C   0  0  0  0  0  0  0  0  0  0  0  0
    3.3439   -1.4009    3.0012 O   0  0  0  0  0  0  0  0  0  0  0  0
  1  2  1  0
  2  3  4  0
  3  4  1  0
  4  5  4  0
  5  6  4  0
  6  7  4  0
  7  8  1  0
  8  9  1  0
  9 10  4  0
 10 11  4  0
 11 12  4  0
 12 13  1  0
 13 14  1  0
 14 15  1  0
 14 16  1  0
 14 17  1  0
 12 18  4  0
 18 19  4  0
  7 20  4  0
  3 21  4  0
 21 22  4  0
 22 23  4  0
 23 24  4  0
 24 25  4  0
 25 26  4  0
 26 27  4  0
 27 28  4  0
 28 29  2  0
 19  9  4  0
 20  4  4  0
 27 22  4  0
 28  2  4  0
M  END
>  <SMILES>  (3) 
Cc4c(c2cnn(Cc1ccc(OC(F)(F)F)cc1)c2)[nH]c3ccccc3c4=O

>  <NumConformers>  (3) 
15

>  <EnergyUnits>  (3) 
RDKit_forcefield

>  <Processing_Time>  (3) 
31.1s

>  <Original_Conformers>  (3) 
500

>  <Total_Conformers>  (3) 
15

>  <Energy>  (3) 
89.521283428164921

>  <Energy_Unit>  (3) 
RDKit_forcefield

>  <Rank>  (3) 
3

>  <Conformer_Index>  (3) 
2

$$$$
WDH-2A-9
     RDKit          3D

 29 32  0  0  0  0  0  0  0  0999 V2000
    0.7985    0.9265    1.8886 C   0  0  0  0  0  0  0  0  0  0  0  0
    2.1210    0.5348    1.2677 C   0  0  0  0  0  0  0  0  0  0  0  0
    2.1956   -0.0266   -0.0329 C   0  0  0  0  0  0  0  0  0  0  0  0
    0.9976   -0.1939   -0.8880 C   0  0  0  0  0  0  0  0  0  0  0  0
    0.6891   -1.2884   -1.6766 C   0  0  0  0  0  0  0  0  0  0  0  0
   -0.4593   -1.0499   -2.3398 N   0  0  0  0  0  0  0  0  0  0  0  0
   -0.8636    0.1677   -2.0129 N   0  0  0  0  0  0  0  0  0  0  0  0
   -2.1095    0.7642   -2.4804 C   0  0  0  0  0  0  0  0  0  0  0  0
   -3.2025    0.5049   -1.4816 C   0  0  0  0  0  0  0  0  0  0  0  0
   -3.4140    1.3947   -0.4181 C   0  0  0  0  0  0  0  0  0  0  0  0
   -4.3980    1.1287    0.5381 C   0  0  0  0  0  0  0  0  0  0  0  0
   -5.1770   -0.0316    0.4558 C   0  0  0  0  0  0  0  0  0  0  0  0
   -6.1510   -0.2473    1.4442 O   0  0  0  0  0  0  0  0  0  0  0  0
   -7.0231   -1.3736    1.5094 C   0  0  0  0  0  0  0  0  0  0  0  0
   -7.8429   -1.2421    2.6134 F   0  0  0  0  0  0  0  0  0  0  0  0
   -7.8108   -1.4332    0.3738 F   0  0  0  0  0  0  0  0  0  0  0  0
   -6.2884   -2.5389    1.6360 F   0  0  0  0  0  0  0  0  0  0  0  0
   -4.9542   -0.9326   -0.6040 C   0  0  0  0  0  0  0  0  0  0  0  0
   -3.9694   -0.6668   -1.5603 C   0  0  0  0  0  0  0  0  0  0  0  0
   -0.0067    0.7207   -1.1347 C   0  0  0  0  0  0  0  0  0  0  0  0
    3.4018   -0.4351   -0.5252 N   0  0  0  0  0  0  0  0  0  0  0  0
    4.5622   -0.2784    0.1710 C   0  0  0  0  0  0  0  0  0  0  0  0
    5.7822   -0.7014   -0.3830 C   0  0  0  0  0  0  0  0  0  0  0  0
    6.9745   -0.5299    0.3237 C   0  0  0  0  0  0  0  0  0  0  0  0
    6.9612    0.0650    1.5862 C   0  0  0  0  0  0  0  0  0  0  0  0
    5.7556    0.4905    2.1496 C   0  0  0  0  0  0  0  0  0  0  0  0
    4.5448    0.3223    1.4488 C   0  0  0  0  0  0  0  0  0  0  0  0
    3.3148    0.7326    1.9911 C   0  0  0  0  0  0  0  0  0  0  0  0
    3.2790    1.2761    3.1305 O   0  0  0  0  0  0  0  0  0  0  0  0
  1  2  1  0
  2  3  4  0
  3  4  1  0
  4  5  4  0
  5  6  4  0
  6  7  4  0
  7  8  1  0
  8  9  1  0
  9 10  4  0
 10 11  4  0
 11 12  4  0
 12 13  1  0
 13 14  1  0
 14 15  1  0
 14 16  1  0
 14 17  1  0
 12 18  4  0
 18 19  4  0
  7 20  4  0
  3 21  4  0
 21 22  4  0
 22 23  4  0
 23 24  4  0
 24 25  4  0
 25 26  4  0
 26 27  4  0
 27 28  4  0
 28 29  2  0
 19  9  4  0
 20  4  4  0
 27 22  4  0
 28  2  4  0
M  END
>  <SMILES>  (4) 
Cc4c(c2cnn(Cc1ccc(OC(F)(F)F)cc1)c2)[nH]c3ccccc3c4=O

>  <NumConformers>  (4) 
15

>  <EnergyUnits>  (4) 
RDKit_forcefield

>  <Processing_Time>  (4) 
31.1s

>  <Original_Conformers>  (4) 
500

>  <Total_Conformers>  (4) 
15

>  <Energy>  (4) 
89.521283901795087

>  <Energy_Unit>  (4) 
RDKit_forcefield

>  <Rank>  (4) 
4

>  <Conformer_Index>  (4) 
3

$$$$
WDH-2A-9
     RDKit          3D

 29 32  0  0  0  0  0  0  0  0999 V2000
    2.1087    3.1392    0.1679 C   0  0  0  0  0  0  0  0  0  0  0  0
    2.6909    1.7571    0.3618 C   0  0  0  0  0  0  0  0  0  0  0  0
    2.1599    0.6252   -0.3084 C   0  0  0  0  0  0  0  0  0  0  0  0
    0.9625    0.7144   -1.1769 C   0  0  0  0  0  0  0  0  0  0  0  0
    0.7613    0.0598   -2.3797 C   0  0  0  0  0  0  0  0  0  0  0  0
   -0.4873    0.3094   -2.8200 N   0  0  0  0  0  0  0  0  0  0  0  0
   -1.0734    1.0986   -1.9332 N   0  0  0  0  0  0  0  0  0  0  0  0
   -2.4682    1.5171   -2.0159 C   0  0  0  0  0  0  0  0  0  0  0  0
   -3.3421    0.5227   -1.3038 C   0  0  0  0  0  0  0  0  0  0  0  0
   -3.6202    0.6756    0.0626 C   0  0  0  0  0  0  0  0  0  0  0  0
   -4.3970   -0.2719    0.7361 C   0  0  0  0  0  0  0  0  0  0  0  0
   -4.8985   -1.3960    0.0512 C   0  0  0  0  0  0  0  0  0  0  0  0
   -5.6833   -2.3786    0.6762 O   0  0  0  0  0  0  0  0  0  0  0  0
   -6.0698   -2.3742    2.0488 C   0  0  0  0  0  0  0  0  0  0  0  0
   -6.8216   -1.2472    2.3290 F   0  0  0  0  0  0  0  0  0  0  0  0
   -6.8363   -3.4951    2.3021 F   0  0  0  0  0  0  0  0  0  0  0  0
   -4.9494   -2.4078    2.8598 F   0  0  0  0  0  0  0  0  0  0  0  0
   -4.6054   -1.5511   -1.3090 C   0  0  0  0  0  0  0  0  0  0  0  0
   -3.8286   -0.6042   -1.9823 C   0  0  0  0  0  0  0  0  0  0  0  0
   -0.2343    1.3505   -0.9114 C   0  0  0  0  0  0  0  0  0  0  0  0
    2.7603   -0.5921   -0.1589 N   0  0  0  0  0  0  0  0  0  0  0  0
    3.8359   -0.7777    0.6561 C   0  0  0  0  0  0  0  0  0  0  0  0
    4.4117   -2.0525    0.7885 C   0  0  0  0  0  0  0  0  0  0  0  0
    5.5064   -2.2475    1.6334 C   0  0  0  0  0  0  0  0  0  0  0  0
    6.0350   -1.1753    2.3538 C   0  0  0  0  0  0  0  0  0  0  0  0
    5.4727    0.0980    2.2323 C   0  0  0  0  0  0  0  0  0  0  0  0
    4.3691    0.3096    1.3822 C   0  0  0  0  0  0  0  0  0  0  0  0
    3.7851    1.5791    1.2329 C   0  0  0  0  0  0  0  0  0  0  0  0
    4.2440    2.5631    1.8780 O   0  0  0  0  0  0  0  0  0  0  0  0
  1  2  1  0
  2  3  4  0
  3  4  1  0
  4  5  4  0
  5  6  4  0
  6  7  4  0
  7  8  1  0
  8  9  1  0
  9 10  4  0
 10 11  4  0
 11 12  4  0
 12 13  1  0
 13 14  1  0
 14 15  1  0
 14 16  1  0
 14 17  1  0
 12 18  4  0
 18 19  4  0
  7 20  4  0
  3 21  4  0
 21 22  4  0
 22 23  4  0
 23 24  4  0
 24 25  4  0
 25 26  4  0
 26 27  4  0
 27 28  4  0
 28 29  2  0
 19  9  4  0
 20  4  4  0
 27 22  4  0
 28  2  4  0
M  END
>  <SMILES>  (5) 
Cc4c(c2cnn(Cc1ccc(OC(F)(F)F)cc1)c2)[nH]c3ccccc3c4=O

>  <NumConformers>  (5) 
15

>  <EnergyUnits>  (5) 
RDKit_forcefield

>  <Processing_Time>  (5) 
31.1s

>  <Original_Conformers>  (5) 
500

>  <Total_Conformers>  (5) 
15

>  <Energy>  (5) 
89.681185352680927

>  <Energy_Unit>  (5) 
RDKit_forcefield

>  <Rank>  (5) 
5

>  <Conformer_Index>  (5) 
4

$$$$
WDH-2A-9
     RDKit          3D

 29 32  0  0  0  0  0  0  0  0999 V2000
    2.5231    1.5061   -2.2722 C   0  0  0  0  0  0  0  0  0  0  0  0
    2.9143    0.8762   -0.9543 C   0  0  0  0  0  0  0  0  0  0  0  0
    2.0756    0.9564    0.1869 C   0  0  0  0  0  0  0  0  0  0  0  0
    0.7388    1.5942    0.1382 C   0  0  0  0  0  0  0  0  0  0  0  0
    0.1678    2.3957    1.1115 C   0  0  0  0  0  0  0  0  0  0  0  0
   -1.0948    2.7006    0.7539 N   0  0  0  0  0  0  0  0  0  0  0  0
   -1.3324    2.1173   -0.4106 N   0  0  0  0  0  0  0  0  0  0  0  0
   -2.6271    2.1421   -1.0817 C   0  0  0  0  0  0  0  0  0  0  0  0
   -3.4558    0.9703   -0.6346 C   0  0  0  0  0  0  0  0  0  0  0  0
   -4.2531    1.0660    0.5152 C   0  0  0  0  0  0  0  0  0  0  0  0
   -4.9902   -0.0370    0.9552 C   0  0  0  0  0  0  0  0  0  0  0  0
   -4.9345   -1.2534    0.2643 C   0  0  0  0  0  0  0  0  0  0  0  0
   -5.6959   -2.3280    0.7520 O   0  0  0  0  0  0  0  0  0  0  0  0
   -5.7503   -3.6294    0.1718 C   0  0  0  0  0  0  0  0  0  0  0  0
   -6.6011   -4.4188    0.9209 F   0  0  0  0  0  0  0  0  0  0  0  0
   -4.4922   -4.2047    0.1724 F   0  0  0  0  0  0  0  0  0  0  0  0
   -6.2345   -3.5549   -1.1219 F   0  0  0  0  0  0  0  0  0  0  0  0
   -4.1218   -1.3537   -0.8818 C   0  0  0  0  0  0  0  0  0  0  0  0
   -3.3847   -0.2503   -1.3223 C   0  0  0  0  0  0  0  0  0  0  0  0
   -0.2521    1.4196   -0.8078 C   0  0  0  0  0  0  0  0  0  0  0  0
    2.4995    0.4345    1.3754 N   0  0  0  0  0  0  0  0  0  0  0  0
    3.6921   -0.2115    1.5023 C   0  0  0  0  0  0  0  0  0  0  0  0
    4.0795   -0.7444    2.7433 C   0  0  0  0  0  0  0  0  0  0  0  0
    5.2960   -1.4181    2.8726 C   0  0  0  0  0  0  0  0  0  0  0  0
    6.1348   -1.5678    1.7671 C   0  0  0  0  0  0  0  0  0  0  0  0
    5.7625   -1.0433    0.5267 C   0  0  0  0  0  0  0  0  0  0  0  0
    4.5389   -0.3596    0.3822 C   0  0  0  0  0  0  0  0  0  0  0  0
    4.1389    0.1853   -0.8499 C   0  0  0  0  0  0  0  0  0  0  0  0
    4.8799    0.0584   -1.8647 O   0  0  0  0  0  0  0  0  0  0  0  0
  1  2  1  0
  2  3  4  0
  3  4  1  0
  4  5  4  0
  5  6  4  0
  6  7  4  0
  7  8  1  0
  8  9  1  0
  9 10  4  0
 10 11  4  0
 11 12  4  0
 12 13  1  0
 13 14  1  0
 14 15  1  0
 14 16  1  0
 14 17  1  0
 12 18  4  0
 18 19  4  0
  7 20  4  0
  3 21  4  0
 21 22  4  0
 22 23  4  0
 23 24  4  0
 24 25  4  0
 25 26  4  0
 26 27  4  0
 27 28  4  0
 28 29  2  0
 19  9  4  0
 20  4  4  0
 27 22  4  0
 28  2  4  0
M  END
>  <SMILES>  (6) 
Cc4c(c2cnn(Cc1ccc(OC(F)(F)F)cc1)c2)[nH]c3ccccc3c4=O

>  <NumConformers>  (6) 
15

>  <EnergyUnits>  (6) 
RDKit_forcefield

>  <Processing_Time>  (6) 
31.1s

>  <Original_Conformers>  (6) 
500

>  <Total_Conformers>  (6) 
15

>  <Energy>  (6) 
89.681186758535986

>  <Energy_Unit>  (6) 
RDKit_forcefield

>  <Rank>  (6) 
6

>  <Conformer_Index>  (6) 
5

$$$$
WDH-2A-9
     RDKit          3D

 29 32  0  0  0  0  0  0  0  0999 V2000
    2.3254    3.1050   -0.3837 C   0  0  0  0  0  0  0  0  0  0  0  0
    2.8375    1.7527    0.0589 C   0  0  0  0  0  0  0  0  0  0  0  0
    2.2051    0.5491   -0.3455 C   0  0  0  0  0  0  0  0  0  0  0  0
    0.9679    0.5454   -1.1611 C   0  0  0  0  0  0  0  0  0  0  0  0
    0.6624   -0.3188   -2.1982 C   0  0  0  0  0  0  0  0  0  0  0  0
   -0.5927   -0.0779   -2.6246 N   0  0  0  0  0  0  0  0  0  0  0  0
   -1.0821    0.9085   -1.8894 N   0  0  0  0  0  0  0  0  0  0  0  0
   -2.4534    1.3945   -1.9925 C   0  0  0  0  0  0  0  0  0  0  0  0
   -3.3419    0.6147   -1.0640 C   0  0  0  0  0  0  0  0  0  0  0  0
   -3.5375    1.0455    0.2563 C   0  0  0  0  0  0  0  0  0  0  0  0
   -4.3291    0.2968    1.1317 C   0  0  0  0  0  0  0  0  0  0  0  0
   -4.9271   -0.8963    0.7091 C   0  0  0  0  0  0  0  0  0  0  0  0
   -5.7126   -1.6070    1.6311 O   0  0  0  0  0  0  0  0  0  0  0  0
   -6.3894   -2.8334    1.3639 C   0  0  0  0  0  0  0  0  0  0  0  0
   -5.4786   -3.8150    1.0163 F   0  0  0  0  0  0  0  0  0  0  0  0
   -7.0606   -3.2325    2.5034 F   0  0  0  0  0  0  0  0  0  0  0  0
   -7.3074   -2.6588    0.3437 F   0  0  0  0  0  0  0  0  0  0  0  0
   -4.7180   -1.3366   -0.6126 C   0  0  0  0  0  0  0  0  0  0  0  0
   -3.9260   -0.5878   -1.4884 C   0  0  0  0  0  0  0  0  0  0  0  0
   -0.1738    1.3001   -0.9765 C   0  0  0  0  0  0  0  0  0  0  0  0
    2.7412   -0.6522    0.0206 N   0  0  0  0  0  0  0  0  0  0  0  0
    3.8481   -0.7450    0.8091 C   0  0  0  0  0  0  0  0  0  0  0  0
    4.3547   -2.0043    1.1720 C   0  0  0  0  0  0  0  0  0  0  0  0
    5.4816   -2.1016    1.9911 C   0  0  0  0  0  0  0  0  0  0  0  0
    6.1117   -0.9462    2.4560 C   0  0  0  0  0  0  0  0  0  0  0  0
    5.6191    0.3128    2.1034 C   0  0  0  0  0  0  0  0  0  0  0  0
    4.4837    0.4261    1.2766 C   0  0  0  0  0  0  0  0  0  0  0  0
    3.9670    1.6774    0.8993 C   0  0  0  0  0  0  0  0  0  0  0  0
    4.5180    2.7364    1.3117 O   0  0  0  0  0  0  0  0  0  0  0  0
  1  2  1  0
  2  3  4  0
  3  4  1  0
  4  5  4  0
  5  6  4  0
  6  7  4  0
  7  8  1  0
  8  9  1  0
  9 10  4  0
 10 11  4  0
 11 12  4  0
 12 13  1  0
 13 14  1  0
 14 15  1  0
 14 16  1  0
 14 17  1  0
 12 18  4  0
 18 19  4  0
  7 20  4  0
  3 21  4  0
 21 22  4  0
 22 23  4  0
 23 24  4  0
 24 25  4  0
 25 26  4  0
 26 27  4  0
 27 28  4  0
 28 29  2  0
 19  9  4  0
 20  4  4  0
 27 22  4  0
 28  2  4  0
M  END
>  <SMILES>  (7) 
Cc4c(c2cnn(Cc1ccc(OC(F)(F)F)cc1)c2)[nH]c3ccccc3c4=O

>  <NumConformers>  (7) 
15

>  <EnergyUnits>  (7) 
RDKit_forcefield

>  <Processing_Time>  (7) 
31.1s

>  <Original_Conformers>  (7) 
500

>  <Total_Conformers>  (7) 
15

>  <Energy>  (7) 
89.687393721055543

>  <Energy_Unit>  (7) 
RDKit_forcefield

>  <Rank>  (7) 
7

>  <Conformer_Index>  (7) 
6

$$$$
WDH-2A-9
     RDKit          3D

 29 32  0  0  0  0  0  0  0  0999 V2000
    3.3967    2.3117   -2.0199 C   0  0  0  0  0  0  0  0  0  0  0  0
    3.3319    1.3784   -0.8320 C   0  0  0  0  0  0  0  0  0  0  0  0
    2.0939    0.9281   -0.3064 C   0  0  0  0  0  0  0  0  0  0  0  0
    0.7977    1.2838   -0.9300 C   0  0  0  0  0  0  0  0  0  0  0  0
    0.4518    1.2292   -2.2705 C   0  0  0  0  0  0  0  0  0  0  0  0
   -0.8553    1.5276   -2.4048 N   0  0  0  0  0  0  0  0  0  0  0  0
   -1.3362    1.7719   -1.1957 N   0  0  0  0  0  0  0  0  0  0  0  0
   -2.7413    2.0510   -0.9218 C   0  0  0  0  0  0  0  0  0  0  0  0
   -3.4724    0.7660   -0.6497 C   0  0  0  0  0  0  0  0  0  0  0  0
   -4.0211    0.0270   -1.7078 C   0  0  0  0  0  0  0  0  0  0  0  0
   -4.6622   -1.1898   -1.4592 C   0  0  0  0  0  0  0  0  0  0  0  0
   -4.7552   -1.6939   -0.1564 C   0  0  0  0  0  0  0  0  0  0  0  0
   -5.4100   -2.9214    0.0342 O   0  0  0  0  0  0  0  0  0  0  0  0
   -5.5888   -3.5736    1.2896 C   0  0  0  0  0  0  0  0  0  0  0  0
   -6.2766   -4.7544    1.0873 F   0  0  0  0  0  0  0  0  0  0  0  0
   -6.3231   -2.7707    2.1439 F   0  0  0  0  0  0  0  0  0  0  0  0
   -4.3601   -3.8646    1.8549 F   0  0  0  0  0  0  0  0  0  0  0  0
   -4.1906   -0.9588    0.9044 C   0  0  0  0  0  0  0  0  0  0  0  0
   -3.5497    0.2587    0.6559 C   0  0  0  0  0  0  0  0  0  0  0  0
   -0.3698    1.6122   -0.2727 C   0  0  0  0  0  0  0  0  0  0  0  0
    2.0791    0.1427    0.8105 N   0  0  0  0  0  0  0  0  0  0  0  0
    3.2227   -0.2719    1.4236 C   0  0  0  0  0  0  0  0  0  0  0  0
    3.1576   -1.0911    2.5632 C   0  0  0  0  0  0  0  0  0  0  0  0
    4.3290   -1.5276    3.1857 C   0  0  0  0  0  0  0  0  0  0  0  0
    5.5738   -1.1532    2.6774 C   0  0  0  0  0  0  0  0  0  0  0  0
    5.6540   -0.3391    1.5447 C   0  0  0  0  0  0  0  0  0  0  0  0
    4.4803    0.1102    0.9075 C   0  0  0  0  0  0  0  0  0  0  0  0
    4.5269    0.9354   -0.2292 C   0  0  0  0  0  0  0  0  0  0  0  0
    5.6420    1.2836   -0.7091 O   0  0  0  0  0  0  0  0  0  0  0  0
  1  2  1  0
  2  3  4  0
  3  4  1  0
  4  5  4  0
  5  6  4  0
  6  7  4  0
  7  8  1  0
  8  9  1  0
  9 10  4  0
 10 11  4  0
 11 12  4  0
 12 13  1  0
 13 14  1  0
 14 15  1  0
 14 16  1  0
 14 17  1  0
 12 18  4  0
 18 19  4  0
  7 20  4  0
  3 21  4  0
 21 22  4  0
 22 23  4  0
 23 24  4  0
 24 25  4  0
 25 26  4  0
 26 27  4  0
 27 28  4  0
 28 29  2  0
 19  9  4  0
 20  4  4  0
 27 22  4  0
 28  2  4  0
M  END
>  <SMILES>  (8) 
Cc4c(c2cnn(Cc1ccc(OC(F)(F)F)cc1)c2)[nH]c3ccccc3c4=O

>  <NumConformers>  (8) 
15

>  <EnergyUnits>  (8) 
RDKit_forcefield

>  <Processing_Time>  (8) 
31.1s

>  <Original_Conformers>  (8) 
500

>  <Total_Conformers>  (8) 
15

>  <Energy>  (8) 
89.720804487691382

>  <Energy_Unit>  (8) 
RDKit_forcefield

>  <Rank>  (8) 
8

>  <Conformer_Index>  (8) 
7

$$$$
WDH-2A-9
     RDKit          3D

 29 32  0  0  0  0  0  0  0  0999 V2000
    3.1934    3.1443   -1.0431 C   0  0  0  0  0  0  0  0  0  0  0  0
    3.2241    1.8200   -0.3138 C   0  0  0  0  0  0  0  0  0  0  0  0
    2.0799    0.9850   -0.2396 C   0  0  0  0  0  0  0  0  0  0  0  0
    0.7719    1.3895   -0.8059 C   0  0  0  0  0  0  0  0  0  0  0  0
    0.1167    2.6016   -0.6603 C   0  0  0  0  0  0  0  0  0  0  0  0
   -1.0982    2.5223   -1.2376 N   0  0  0  0  0  0  0  0  0  0  0  0
   -1.2222    1.3050   -1.7434 N   0  0  0  0  0  0  0  0  0  0  0  0
   -2.4382    0.8095   -2.3783 C   0  0  0  0  0  0  0  0  0  0  0  0
   -3.3271    0.1709   -1.3479 C   0  0  0  0  0  0  0  0  0  0  0  0
   -4.2460    0.9478   -0.6275 C   0  0  0  0  0  0  0  0  0  0  0  0
   -5.0412    0.3620    0.3614 C   0  0  0  0  0  0  0  0  0  0  0  0
   -4.9242   -1.0017    0.6557 C   0  0  0  0  0  0  0  0  0  0  0  0
   -5.7483   -1.5362    1.6593 O   0  0  0  0  0  0  0  0  0  0  0  0
   -5.7537   -2.8980    2.0822 C   0  0  0  0  0  0  0  0  0  0  0  0
   -6.0901   -3.7244    1.0250 F   0  0  0  0  0  0  0  0  0  0  0  0
   -6.6921   -3.0523    3.0841 F   0  0  0  0  0  0  0  0  0  0  0  0
   -4.5106   -3.2483    2.5780 F   0  0  0  0  0  0  0  0  0  0  0  0
   -3.9904   -1.7786   -0.0575 C   0  0  0  0  0  0  0  0  0  0  0  0
   -3.1952   -1.1929   -1.0472 C   0  0  0  0  0  0  0  0  0  0  0  0
   -0.1181    0.5811   -1.4824 C   0  0  0  0  0  0  0  0  0  0  0  0
    2.1712   -0.2344    0.3682 N   0  0  0  0  0  0  0  0  0  0  0  0
    3.3199   -0.6699    0.9567 C   0  0  0  0  0  0  0  0  0  0  0  0
    3.3617   -1.9273    1.5822 C   0  0  0  0  0  0  0  0  0  0  0  0
    4.5348   -2.3702    2.1971 C   0  0  0  0  0  0  0  0  0  0  0  0
    5.6741   -1.5640    2.1953 C   0  0  0  0  0  0  0  0  0  0  0  0
    5.6472   -0.3112    1.5774 C   0  0  0  0  0  0  0  0  0  0  0  0
    4.4711    0.1477    0.9515 C   0  0  0  0  0  0  0  0  0  0  0  0
    4.4136    1.3996    0.3155 C   0  0  0  0  0  0  0  0  0  0  0  0
    5.4310    2.1478    0.3047 O   0  0  0  0  0  0  0  0  0  0  0  0
  1  2  1  0
  2  3  4  0
  3  4  1  0
  4  5  4  0
  5  6  4  0
  6  7  4  0
  7  8  1  0
  8  9  1  0
  9 10  4  0
 10 11  4  0
 11 12  4  0
 12 13  1  0
 13 14  1  0
 14 15  1  0
 14 16  1  0
 14 17  1  0
 12 18  4  0
 18 19  4  0
  7 20  4  0
  3 21  4  0
 21 22  4  0
 22 23  4  0
 23 24  4  0
 24 25  4  0
 25 26  4  0
 26 27  4  0
 27 28  4  0
 28 29  2  0
 19  9  4  0
 20  4  4  0
 27 22  4  0
 28  2  4  0
M  END
>  <SMILES>  (9) 
Cc4c(c2cnn(Cc1ccc(OC(F)(F)F)cc1)c2)[nH]c3ccccc3c4=O

>  <NumConformers>  (9) 
15

>  <EnergyUnits>  (9) 
RDKit_forcefield

>  <Processing_Time>  (9) 
31.1s

>  <Original_Conformers>  (9) 
500

>  <Total_Conformers>  (9) 
15

>  <Energy>  (9) 
89.720804503143157

>  <Energy_Unit>  (9) 
RDKit_forcefield

>  <Rank>  (9) 
9

>  <Conformer_Index>  (9) 
8

$$$$
WDH-2A-9
     RDKit          3D

 29 32  0  0  0  0  0  0  0  0999 V2000
    3.3627    1.9329   -2.3116 C   0  0  0  0  0  0  0  0  0  0  0  0
    3.3527    1.1933   -0.9928 C   0  0  0  0  0  0  0  0  0  0  0  0
    2.1405    0.8583   -0.3369 C   0  0  0  0  0  0  0  0  0  0  0  0
    0.8160    1.1460   -0.9354 C   0  0  0  0  0  0  0  0  0  0  0  0
    0.3920    0.8963   -2.2306 C   0  0  0  0  0  0  0  0  0  0  0  0
   -0.9158    1.2027   -2.3370 N   0  0  0  0  0  0  0  0  0  0  0  0
   -1.3218    1.6400   -1.1552 N   0  0  0  0  0  0  0  0  0  0  0  0
   -2.7040    1.9923   -0.8507 C   0  0  0  0  0  0  0  0  0  0  0  0
   -3.4390    0.7822   -0.3458 C   0  0  0  0  0  0  0  0  0  0  0  0
   -4.0549   -0.0982   -1.2473 C   0  0  0  0  0  0  0  0  0  0  0  0
   -4.7015   -1.2476   -0.7828 C   0  0  0  0  0  0  0  0  0  0  0  0
   -4.7300   -1.5390    0.5951 C   0  0  0  0  0  0  0  0  0  0  0  0
   -5.3638   -2.6780    1.1177 O   0  0  0  0  0  0  0  0  0  0  0  0
   -6.0460   -3.6667    0.3494 C   0  0  0  0  0  0  0  0  0  0  0  0
   -6.5418   -4.6337    1.2023 F   0  0  0  0  0  0  0  0  0  0  0  0
   -7.1019   -3.0931   -0.3362 F   0  0  0  0  0  0  0  0  0  0  0  0
   -5.1731   -4.2638   -0.5423 F   0  0  0  0  0  0  0  0  0  0  0  0
   -4.1005   -0.6645    1.4890 C   0  0  0  0  0  0  0  0  0  0  0  0
   -3.4543    0.4845    1.0248 C   0  0  0  0  0  0  0  0  0  0  0  0
   -0.3062    1.5991   -0.2731 C   0  0  0  0  0  0  0  0  0  0  0  0
    2.1786    0.2530    0.8865 N   0  0  0  0  0  0  0  0  0  0  0  0
    3.3495   -0.0908    1.4920 C   0  0  0  0  0  0  0  0  0  0  0  0
    3.3381   -0.7248    2.7458 C   0  0  0  0  0  0  0  0  0  0  0  0
    4.5369   -1.0894    3.3624 C   0  0  0  0  0  0  0  0  0  0  0  0
    5.7556   -0.8270    2.7348 C   0  0  0  0  0  0  0  0  0  0  0  0
    5.7824   -0.1972    1.4878 C   0  0  0  0  0  0  0  0  0  0  0  0
    4.5806    0.1778    0.8548 C   0  0  0  0  0  0  0  0  0  0  0  0
    4.5738    0.8188   -0.3959 C   0  0  0  0  0  0  0  0  0  0  0  0
    5.6643    1.0627   -0.9843 O   0  0  0  0  0  0  0  0  0  0  0  0
  1  2  1  0
  2  3  4  0
  3  4  1  0
  4  5  4  0
  5  6  4  0
  6  7  4  0
  7  8  1  0
  8  9  1  0
  9 10  4  0
 10 11  4  0
 11 12  4  0
 12 13  1  0
 13 14  1  0
 14 15  1  0
 14 16  1  0
 14 17  1  0
 12 18  4  0
 18 19  4  0
  7 20  4  0
  3 21  4  0
 21 22  4  0
 22 23  4  0
 23 24  4  0
 24 25  4  0
 25 26  4  0
 26 27  4  0
 27 28  4  0
 28 29  2  0
 19  9  4  0
 20  4  4  0
 27 22  4  0
 28  2  4  0
M  END
>  <SMILES>  (10) 
Cc4c(c2cnn(Cc1ccc(OC(F)(F)F)cc1)c2)[nH]c3ccccc3c4=O

>  <NumConformers>  (10) 
15

>  <EnergyUnits>  (10) 
RDKit_forcefield

>  <Processing_Time>  (10) 
31.1s

>  <Original_Conformers>  (10) 
500

>  <Total_Conformers>  (10) 
15

>  <Energy>  (10) 
89.731235418625005

>  <Energy_Unit>  (10) 
RDKit_forcefield

>  <Rank>  (10) 
10

>  <Conformer_Index>  (10) 
9

$$$$
WDH-2A-9
     RDKit          3D

 29 32  0  0  0  0  0  0  0  0999 V2000
    3.0316    3.2716   -0.8944 C   0  0  0  0  0  0  0  0  0  0  0  0
    3.1711    1.9279   -0.2152 C   0  0  0  0  0  0  0  0  0  0  0  0
    2.1083    0.9887   -0.1990 C   0  0  0  0  0  0  0  0  0  0  0  0
    0.7796    1.2931   -0.7797 C   0  0  0  0  0  0  0  0  0  0  0  0
    0.0119    2.4330   -0.6038 C   0  0  0  0  0  0  0  0  0  0  0  0
   -1.1786    2.2653   -1.2121 N   0  0  0  0  0  0  0  0  0  0  0  0
   -1.1791    1.0629   -1.7661 N   0  0  0  0  0  0  0  0  0  0  0  0
   -2.3307    0.4835   -2.4481 C   0  0  0  0  0  0  0  0  0  0  0  0
   -3.1777   -0.2741   -1.4641 C   0  0  0  0  0  0  0  0  0  0  0  0
   -4.1751    0.3877   -0.7329 C   0  0  0  0  0  0  0  0  0  0  0  0
   -4.9345   -0.3055    0.2146 C   0  0  0  0  0  0  0  0  0  0  0  0
   -4.6968   -1.6734    0.4528 C   0  0  0  0  0  0  0  0  0  0  0  0
   -5.4278   -2.4193    1.3916 O   0  0  0  0  0  0  0  0  0  0  0  0
   -6.4804   -1.9108    2.2083 C   0  0  0  0  0  0  0  0  0  0  0  0
   -6.0057   -0.8974    3.0216 F   0  0  0  0  0  0  0  0  0  0  0  0
   -7.5115   -1.4371    1.4170 F   0  0  0  0  0  0  0  0  0  0  0  0
   -6.9628   -2.9315    3.0043 F   0  0  0  0  0  0  0  0  0  0  0  0
   -3.6898   -2.3252   -0.2691 C   0  0  0  0  0  0  0  0  0  0  0  0
   -2.9307   -1.6324   -1.2163 C   0  0  0  0  0  0  0  0  0  0  0  0
   -0.0179    0.4338   -1.5068 C   0  0  0  0  0  0  0  0  0  0  0  0
    2.3007   -0.2404    0.3642 N   0  0  0  0  0  0  0  0  0  0  0  0
    3.4732   -0.5911    0.9622 C   0  0  0  0  0  0  0  0  0  0  0  0
    3.6197   -1.8633    1.5405 C   0  0  0  0  0  0  0  0  0  0  0  0
    4.8166   -2.2202    2.1653 C   0  0  0  0  0  0  0  0  0  0  0  0
    5.8758   -1.3130    2.2202 C   0  0  0  0  0  0  0  0  0  0  0  0
    5.7446   -0.0444    1.6496 C   0  0  0  0  0  0  0  0  0  0  0  0
    4.5433    0.3287    1.0145 C   0  0  0  0  0  0  0  0  0  0  0  0
    4.3820    1.5942    0.4251 C   0  0  0  0  0  0  0  0  0  0  0  0
    5.3255    2.4328    0.4662 O   0  0  0  0  0  0  0  0  0  0  0  0
  1  2  1  0
  2  3  4  0
  3  4  1  0
  4  5  4  0
  5  6  4  0
  6  7  4  0
  7  8  1  0
  8  9  1  0
  9 10  4  0
 10 11  4  0
 11 12  4  0
 12 13  1  0
 13 14  1  0
 14 15  1  0
 14 16  1  0
 14 17  1  0
 12 18  4  0
 18 19  4  0
  7 20  4  0
  3 21  4  0
 21 22  4  0
 22 23  4  0
 23 24  4  0
 24 25  4  0
 25 26  4  0
 26 27  4  0
 27 28  4  0
 28 29  2  0
 19  9  4  0
 20  4  4  0
 27 22  4  0
 28  2  4  0
M  END
>  <SMILES>  (11) 
Cc4c(c2cnn(Cc1ccc(OC(F)(F)F)cc1)c2)[nH]c3ccccc3c4=O

>  <NumConformers>  (11) 
15

>  <EnergyUnits>  (11) 
RDKit_forcefield

>  <Processing_Time>  (11) 
31.1s

>  <Original_Conformers>  (11) 
500

>  <Total_Conformers>  (11) 
15

>  <Energy>  (11) 
89.731235426015999

>  <Energy_Unit>  (11) 
RDKit_forcefield

>  <Rank>  (11) 
11

>  <Conformer_Index>  (11) 
10

$$$$
WDH-2A-9
     RDKit          3D

 29 32  0  0  0  0  0  0  0  0999 V2000
    1.5719    2.8021    1.0615 C   0  0  0  0  0  0  0  0  0  0  0  0
    2.4772    1.6227    0.7861 C   0  0  0  0  0  0  0  0  0  0  0  0
    2.1248    0.6166   -0.1496 C   0  0  0  0  0  0  0  0  0  0  0  0
    0.8905    0.6964   -0.9652 C   0  0  0  0  0  0  0  0  0  0  0  0
    0.3989    1.7829   -1.6707 C   0  0  0  0  0  0  0  0  0  0  0  0
   -0.7159    1.4154   -2.3322 N   0  0  0  0  0  0  0  0  0  0  0  0
   -0.9250    0.1322   -2.0815 N   0  0  0  0  0  0  0  0  0  0  0  0
   -2.0775   -0.6144   -2.5728 C   0  0  0  0  0  0  0  0  0  0  0  0
   -3.1986   -0.5348   -1.5748 C   0  0  0  0  0  0  0  0  0  0  0  0
   -4.1054    0.5343   -1.6141 C   0  0  0  0  0  0  0  0  0  0  0  0
   -5.1216    0.6317   -0.6594 C   0  0  0  0  0  0  0  0  0  0  0  0
   -5.2416   -0.3262    0.3545 C   0  0  0  0  0  0  0  0  0  0  0  0
   -6.2814   -0.1779    1.2867 O   0  0  0  0  0  0  0  0  0  0  0  0
   -6.5413   -1.0583    2.3779 C   0  0  0  0  0  0  0  0  0  0  0  0
   -7.6405   -0.5956    3.0750 F   0  0  0  0  0  0  0  0  0  0  0  0
   -5.4537   -1.0926    3.2322 F   0  0  0  0  0  0  0  0  0  0  0  0
   -6.8139   -2.3311    1.9094 F   0  0  0  0  0  0  0  0  0  0  0  0
   -4.3212   -1.3915    0.4029 C   0  0  0  0  0  0  0  0  0  0  0  0
   -3.3050   -1.4893   -0.5524 C   0  0  0  0  0  0  0  0  0  0  0  0
    0.0286   -0.3401   -1.2575 C   0  0  0  0  0  0  0  0  0  0  0  0
    2.9362   -0.4695   -0.3122 N   0  0  0  0  0  0  0  0  0  0  0  0
    4.1128   -0.6060    0.3605 C   0  0  0  0  0  0  0  0  0  0  0  0
    4.9217   -1.7352    0.1495 C   0  0  0  0  0  0  0  0  0  0  0  0
    6.1344   -1.8707    0.8286 C   0  0  0  0  0  0  0  0  0  0  0  0
    6.5515   -0.8824    1.7215 C   0  0  0  0  0  0  0  0  0  0  0  0
    5.7575    0.2460    1.9415 C   0  0  0  0  0  0  0  0  0  0  0  0
    4.5307    0.3950    1.2646 C   0  0  0  0  0  0  0  0  0  0  0  0
    3.7056    1.5142    1.4694 C   0  0  0  0  0  0  0  0  0  0  0  0
    4.0641    2.4224    2.2704 O   0  0  0  0  0  0  0  0  0  0  0  0
  1  2  1  0
  2  3  4  0
  3  4  1  0
  4  5  4  0
  5  6  4  0
  6  7  4  0
  7  8  1  0
  8  9  1  0
  9 10  4  0
 10 11  4  0
 11 12  4  0
 12 13  1  0
 13 14  1  0
 14 15  1  0
 14 16  1  0
 14 17  1  0
 12 18  4  0
 18 19  4  0
  7 20  4  0
  3 21  4  0
 21 22  4  0
 22 23  4  0
 23 24  4  0
 24 25  4  0
 25 26  4  0
 26 27  4  0
 27 28  4  0
 28 29  2  0
 19  9  4  0
 20  4  4  0
 27 22  4  0
 28  2  4  0
M  END
>  <SMILES>  (12) 
Cc4c(c2cnn(Cc1ccc(OC(F)(F)F)cc1)c2)[nH]c3ccccc3c4=O

>  <NumConformers>  (12) 
15

>  <EnergyUnits>  (12) 
RDKit_forcefield

>  <Processing_Time>  (12) 
31.1s

>  <Original_Conformers>  (12) 
500

>  <Total_Conformers>  (12) 
15

>  <Energy>  (12) 
89.81547958487819

>  <Energy_Unit>  (12) 
RDKit_forcefield

>  <Rank>  (12) 
12

>  <Conformer_Index>  (12) 
11

$$$$
WDH-2A-9
     RDKit          3D

 29 32  0  0  0  0  0  0  0  0999 V2000
    1.7139   -1.3170    2.6672 C   0  0  0  0  0  0  0  0  0  0  0  0
    2.5534   -0.5830    1.6460 C   0  0  0  0  0  0  0  0  0  0  0  0
    2.1637   -0.4983    0.2847 C   0  0  0  0  0  0  0  0  0  0  0  0
    0.9560   -1.1824   -0.2333 C   0  0  0  0  0  0  0  0  0  0  0  0
    0.5470   -2.4866   -0.0067 C   0  0  0  0  0  0  0  0  0  0  0  0
   -0.5720   -2.7308   -0.7164 N   0  0  0  0  0  0  0  0  0  0  0  0
   -0.8635   -1.6316   -1.3944 N   0  0  0  0  0  0  0  0  0  0  0  0
   -2.0469   -1.4845   -2.2340 C   0  0  0  0  0  0  0  0  0  0  0  0
   -3.1847   -0.9370   -1.4185 C   0  0  0  0  0  0  0  0  0  0  0  0
   -4.0249   -1.8044   -0.7053 C   0  0  0  0  0  0  0  0  0  0  0  0
   -5.0557   -1.2928    0.0879 C   0  0  0  0  0  0  0  0  0  0  0  0
   -5.2567    0.0887    0.1922 C   0  0  0  0  0  0  0  0  0  0  0  0
   -6.3074    0.5461    1.0039 O   0  0  0  0  0  0  0  0  0  0  0  0
   -6.6453    1.9144    1.2209 C   0  0  0  0  0  0  0  0  0  0  0  0
   -6.9828    2.5182    0.0228 F   0  0  0  0  0  0  0  0  0  0  0  0
   -5.5820    2.5816    1.8024 F   0  0  0  0  0  0  0  0  0  0  0  0
   -7.7306    1.9784    2.0730 F   0  0  0  0  0  0  0  0  0  0  0  0
   -4.4030    0.9603   -0.5121 C   0  0  0  0  0  0  0  0  0  0  0  0
   -3.3722    0.4486   -1.3061 C   0  0  0  0  0  0  0  0  0  0  0  0
    0.0406   -0.6704   -1.1292 C   0  0  0  0  0  0  0  0  0  0  0  0
    2.9125    0.2377   -0.5883 N   0  0  0  0  0  0  0  0  0  0  0  0
    4.0626    0.8633   -0.2124 C   0  0  0  0  0  0  0  0  0  0  0  0
    4.8074    1.5981   -1.1503 C   0  0  0  0  0  0  0  0  0  0  0  0
    5.9935    2.2297   -0.7698 C   0  0  0  0  0  0  0  0  0  0  0  0
    6.4475    2.1332    0.5465 C   0  0  0  0  0  0  0  0  0  0  0  0
    5.7174    1.4059    1.4899 C   0  0  0  0  0  0  0  0  0  0  0  0
    4.5180    0.7651    1.1206 C   0  0  0  0  0  0  0  0  0  0  0  0
    3.7567    0.0325    2.0473 C   0  0  0  0  0  0  0  0  0  0  0  0
    4.1497   -0.0711    3.2431 O   0  0  0  0  0  0  0  0  0  0  0  0
  1  2  1  0
  2  3  4  0
  3  4  1  0
  4  5  4  0
  5  6  4  0
  6  7  4  0
  7  8  1  0
  8  9  1  0
  9 10  4  0
 10 11  4  0
 11 12  4  0
 12 13  1  0
 13 14  1  0
 14 15  1  0
 14 16  1  0
 14 17  1  0
 12 18  4  0
 18 19  4  0
  7 20  4  0
  3 21  4  0
 21 22  4  0
 22 23  4  0
 23 24  4  0
 24 25  4  0
 25 26  4  0
 26 27  4  0
 27 28  4  0
 28 29  2  0
 19  9  4  0
 20  4  4  0
 27 22  4  0
 28  2  4  0
M  END
>  <SMILES>  (13) 
Cc4c(c2cnn(Cc1ccc(OC(F)(F)F)cc1)c2)[nH]c3ccccc3c4=O

>  <NumConformers>  (13) 
15

>  <EnergyUnits>  (13) 
RDKit_forcefield

>  <Processing_Time>  (13) 
31.1s

>  <Original_Conformers>  (13) 
500

>  <Total_Conformers>  (13) 
15

>  <Energy>  (13) 
89.81548200657187

>  <Energy_Unit>  (13) 
RDKit_forcefield

>  <Rank>  (13) 
13

>  <Conformer_Index>  (13) 
12

$$$$
WDH-2A-9
     RDKit          3D

 29 32  0  0  0  0  0  0  0  0999 V2000
    1.6362   -1.0080    2.7423 C   0  0  0  0  0  0  0  0  0  0  0  0
    2.5499   -0.4334    1.6833 C   0  0  0  0  0  0  0  0  0  0  0  0
    2.1944   -0.4407    0.3101 C   0  0  0  0  0  0  0  0  0  0  0  0
    0.9471   -1.0743   -0.1777 C   0  0  0  0  0  0  0  0  0  0  0  0
    0.4332   -2.3183    0.1509 C   0  0  0  0  0  0  0  0  0  0  0  0
   -0.6875   -2.5388   -0.5640 N   0  0  0  0  0  0  0  0  0  0  0  0
   -0.8789   -1.4852   -1.3426 N   0  0  0  0  0  0  0  0  0  0  0  0
   -2.0304   -1.3240   -2.2231 C   0  0  0  0  0  0  0  0  0  0  0  0
   -3.1361   -0.6168   -1.4906 C   0  0  0  0  0  0  0  0  0  0  0  0
   -3.2194    0.7831   -1.5157 C   0  0  0  0  0  0  0  0  0  0  0  0
   -4.2219    1.4421   -0.7987 C   0  0  0  0  0  0  0  0  0  0  0  0
   -5.1476    0.7184   -0.0377 C   0  0  0  0  0  0  0  0  0  0  0  0
   -6.1332    1.4331    0.6622 O   0  0  0  0  0  0  0  0  0  0  0  0
   -7.1457    0.8530    1.4819 C   0  0  0  0  0  0  0  0  0  0  0  0
   -6.5699    0.1505    2.5254 F   0  0  0  0  0  0  0  0  0  0  0  0
   -7.9317    1.8616    2.0044 F   0  0  0  0  0  0  0  0  0  0  0  0
   -7.9438    0.0102    0.7292 F   0  0  0  0  0  0  0  0  0  0  0  0
   -5.0544   -0.6867   -0.0004 C   0  0  0  0  0  0  0  0  0  0  0  0
   -4.0515   -1.3461   -0.7176 C   0  0  0  0  0  0  0  0  0  0  0  0
    0.0921   -0.5759   -1.1386 C   0  0  0  0  0  0  0  0  0  0  0  0
    3.0149    0.1557   -0.6038 N   0  0  0  0  0  0  0  0  0  0  0  0
    4.2028    0.7232   -0.2540 C   0  0  0  0  0  0  0  0  0  0  0  0
    5.0206    1.3130   -1.2325 C   0  0  0  0  0  0  0  0  0  0  0  0
    6.2447    1.8840   -0.8777 C   0  0  0  0  0  0  0  0  0  0  0  0
    6.6643    1.8707    0.4534 C   0  0  0  0  0  0  0  0  0  0  0  0
    5.8616    1.2878    1.4373 C   0  0  0  0  0  0  0  0  0  0  0  0
    4.6233    0.7096    1.0940 C   0  0  0  0  0  0  0  0  0  0  0  0
    3.7894    0.1222    2.0608 C   0  0  0  0  0  0  0  0  0  0  0  0
    4.1499    0.0959    3.2709 O   0  0  0  0  0  0  0  0  0  0  0  0
  1  2  1  0
  2  3  4  0
  3  4  1  0
  4  5  4  0
  5  6  4  0
  6  7  4  0
  7  8  1  0
  8  9  1  0
  9 10  4  0
 10 11  4  0
 11 12  4  0
 12 13  1  0
 13 14  1  0
 14 15  1  0
 14 16  1  0
 14 17  1  0
 12 18  4  0
 18 19  4  0
  7 20  4  0
  3 21  4  0
 21 22  4  0
 22 23  4  0
 23 24  4  0
 24 25  4  0
 25 26  4  0
 26 27  4  0
 27 28  4  0
 28 29  2  0
 19  9  4  0
 20  4  4  0
 27 22  4  0
 28  2  4  0
M  END
>  <SMILES>  (14) 
Cc4c(c2cnn(Cc1ccc(OC(F)(F)F)cc1)c2)[nH]c3ccccc3c4=O

>  <NumConformers>  (14) 
15

>  <EnergyUnits>  (14) 
RDKit_forcefield

>  <Processing_Time>  (14) 
31.1s

>  <Original_Conformers>  (14) 
500

>  <Total_Conformers>  (14) 
15

>  <Energy>  (14) 
89.819691832310951

>  <Energy_Unit>  (14) 
RDKit_forcefield

>  <Rank>  (14) 
14

>  <Conformer_Index>  (14) 
13

$$$$
WDH-2A-9
     RDKit          3D

 29 32  0  0  0  0  0  0  0  0999 V2000
    1.4762    1.8501    2.3509 C   0  0  0  0  0  0  0  0  0  0  0  0
    2.4631    1.1165    1.4710 C   0  0  0  0  0  0  0  0  0  0  0  0
    2.1296    0.7164    0.1517 C   0  0  0  0  0  0  0  0  0  0  0  0
    0.8278    1.0554   -0.4694 C   0  0  0  0  0  0  0  0  0  0  0  0
    0.1758    2.2779   -0.4786 C   0  0  0  0  0  0  0  0  0  0  0  0
   -0.9513    2.1746   -1.2095 N   0  0  0  0  0  0  0  0  0  0  0  0
   -1.0145    0.9365   -1.6743 N   0  0  0  0  0  0  0  0  0  0  0  0
   -2.1281    0.4200   -2.4619 C   0  0  0  0  0  0  0  0  0  0  0  0
   -3.1605   -0.1818   -1.5502 C   0  0  0  0  0  0  0  0  0  0  0  0
   -4.1618    0.6232   -0.9874 C   0  0  0  0  0  0  0  0  0  0  0  0
   -5.0970    0.0744   -0.1047 C   0  0  0  0  0  0  0  0  0  0  0  0
   -5.0351   -1.2907    0.2375 C   0  0  0  0  0  0  0  0  0  0  0  0
   -5.9468   -1.8952    1.1181 O   0  0  0  0  0  0  0  0  0  0  0  0
   -7.0289   -1.2311    1.7673 C   0  0  0  0  0  0  0  0  0  0  0  0
   -7.7074   -2.1426    2.5529 F   0  0  0  0  0  0  0  0  0  0  0  0
   -7.9033   -0.7137    0.8284 F   0  0  0  0  0  0  0  0  0  0  0  0
   -6.5493   -0.2160    2.5756 F   0  0  0  0  0  0  0  0  0  0  0  0
   -4.0244   -2.0860   -0.3156 C   0  0  0  0  0  0  0  0  0  0  0  0
   -3.0895   -1.5375   -1.1979 C   0  0  0  0  0  0  0  0  0  0  0  0
    0.0471    0.2272   -1.2486 C   0  0  0  0  0  0  0  0  0  0  0  0
    3.0241   -0.0095   -0.5812 N   0  0  0  0  0  0  0  0  0  0  0  0
    4.2617   -0.3287   -0.1099 C   0  0  0  0  0  0  0  0  0  0  0  0
    5.1538   -1.0660   -0.9067 C   0  0  0  0  0  0  0  0  0  0  0  0
    6.4276   -1.3833   -0.4302 C   0  0  0  0  0  0  0  0  0  0  0  0
    6.8232   -0.9678    0.8422 C   0  0  0  0  0  0  0  0  0  0  0  0
    5.9468   -0.2340    1.6457 C   0  0  0  0  0  0  0  0  0  0  0  0
    4.6579    0.0917    1.1786 C   0  0  0  0  0  0  0  0  0  0  0  0
    3.7503    0.8216    1.9650 C   0  0  0  0  0  0  0  0  0  0  0  0
    4.0875    1.2107    3.1182 O   0  0  0  0  0  0  0  0  0  0  0  0
  1  2  1  0
  2  3  4  0
  3  4  1  0
  4  5  4  0
  5  6  4  0
  6  7  4  0
  7  8  1  0
  8  9  1  0
  9 10  4  0
 10 11  4  0
 11 12  4  0
 12 13  1  0
 13 14  1  0
 14 15  1  0
 14 16  1  0
 14 17  1  0
 12 18  4  0
 18 19  4  0
  7 20  4  0
  3 21  4  0
 21 22  4  0
 22 23  4  0
 23 24  4  0
 24 25  4  0
 25 26  4  0
 26 27  4  0
 27 28  4  0
 28 29  2  0
 19  9  4  0
 20  4  4  0
 27 22  4  0
 28  2  4  0
M  END
>  <SMILES>  (15) 
Cc4c(c2cnn(Cc1ccc(OC(F)(F)F)cc1)c2)[nH]c3ccccc3c4=O

>  <NumConformers>  (15) 
15

>  <EnergyUnits>  (15) 
RDKit_forcefield

>  <Processing_Time>  (15) 
31.1s

>  <Original_Conformers>  (15) 
500

>  <Total_Conformers>  (15) 
15

>  <Energy>  (15) 
89.819692301610075

>  <Energy_Unit>  (15) 
RDKit_forcefield

>  <Rank>  (15) 
15

>  <Conformer_Index>  (15) 
14

$$$$
