WDH-1U-10
     RDKit          3D

 29 32  0  0  0  0  0  0  0  0999 V2000
    0.0759    3.7137   -0.2551 C   0  0  0  0  0  0  0  0  0  0  0  0
   -1.0318    3.1103   -1.1039 C   0  0  0  0  0  0  0  0  0  0  0  0
   -1.4012    1.8450   -0.5685 O   0  0  0  0  0  0  0  0  0  0  0  0
   -2.3371    1.0033   -1.1786 C   0  0  0  0  0  0  0  0  0  0  0  0
   -2.9662    1.3957   -2.1998 O   0  0  0  0  0  0  0  0  0  0  0  0
   -2.5922   -0.3510   -0.6171 C   0  0  0  0  0  0  0  0  0  0  0  0
   -1.5628   -1.0888    0.0234 C   0  0  0  0  0  0  0  0  0  0  0  0
   -0.1622   -0.6079    0.0555 C   0  0  0  0  0  0  0  0  0  0  0  0
    0.4794   -0.3984    1.2837 C   0  0  0  0  0  0  0  0  0  0  0  0
    1.7886    0.0891    1.3215 C   0  0  0  0  0  0  0  0  0  0  0  0
    2.4815    0.3672    0.1295 C   0  0  0  0  0  0  0  0  0  0  0  0
    3.8610    0.9135    0.1687 C   0  0  0  0  0  0  0  0  0  0  0  0
    4.2494    1.9363   -0.7168 C   0  0  0  0  0  0  0  0  0  0  0  0
    5.5476    2.4535   -0.6761 C   0  0  0  0  0  0  0  0  0  0  0  0
    6.4724    1.9567    0.2468 C   0  0  0  0  0  0  0  0  0  0  0  0
    8.1008    2.6071    0.2954 Cl  0  0  0  0  0  0  0  0  0  0  0  0
    6.0975    0.9413    1.1313 C   0  0  0  0  0  0  0  0  0  0  0  0
    4.7999    0.4221    1.0948 C   0  0  0  0  0  0  0  0  0  0  0  0
    1.8425    0.1295   -1.1006 C   0  0  0  0  0  0  0  0  0  0  0  0
    0.5348   -0.3605   -1.1369 C   0  0  0  0  0  0  0  0  0  0  0  0
   -1.8458   -2.2911    0.6032 N   0  0  0  0  0  0  0  0  0  0  0  0
   -3.0914   -2.8401    0.5646 C   0  0  0  0  0  0  0  0  0  0  0  0
   -3.3330   -4.0878    1.1635 C   0  0  0  0  0  0  0  0  0  0  0  0
   -4.6081   -4.6556    1.1200 C   0  0  0  0  0  0  0  0  0  0  0  0
   -5.6518   -3.9857    0.4798 C   0  0  0  0  0  0  0  0  0  0  0  0
   -5.4263   -2.7441   -0.1201 C   0  0  0  0  0  0  0  0  0  0  0  0
   -4.1447   -2.1592   -0.0848 C   0  0  0  0  0  0  0  0  0  0  0  0
   -3.8884   -0.9073   -0.6714 C   0  0  0  0  0  0  0  0  0  0  0  0
   -4.8267   -0.2725   -1.2294 O   0  0  0  0  0  0  0  0  0  0  0  0
  1  2  1  0
  2  3  1  0
  3  4  1  0
  4  5  2  0
  4  6  1  0
  6  7  4  0
  7  8  1  0
  8  9  4  0
  9 10  4  0
 10 11  4  0
 11 12  1  0
 12 13  4  0
 13 14  4  0
 14 15  4  0
 15 16  1  0
 15 17  4  0
 17 18  4  0
 11 19  4  0
 19 20  4  0
  7 21  4  0
 21 22  4  0
 22 23  4  0
 23 24  4  0
 24 25  4  0
 25 26  4  0
 26 27  4  0
 27 28  4  0
 28 29  2  0
 18 12  4  0
 20  8  4  0
 27 22  4  0
 28  6  4  0
M  END
>  <SMILES>  (1) 
CCOC(=O)c4c(c2ccc(c1ccc(Cl)cc1)cc2)[nH]c3ccccc3c4=O

>  <NumConformers>  (1) 
25

>  <EnergyUnits>  (1) 
RDKit_forcefield

>  <Total_Conformers>  (1) 
25

>  <Energy>  (1) 
67.095406389916292

>  <Energy_Unit>  (1) 
RDKit_forcefield

>  <Rank>  (1) 
1

>  <Conformer_Index>  (1) 
0

$$$$
WDH-1U-10
     RDKit          3D

 29 32  0  0  0  0  0  0  0  0999 V2000
    0.3661    3.1127   -2.0097 C   0  0  0  0  0  0  0  0  0  0  0  0
   -0.9936    3.0313   -1.3345 C   0  0  0  0  0  0  0  0  0  0  0  0
   -1.3159    1.6684   -1.0843 O   0  0  0  0  0  0  0  0  0  0  0  0
   -2.4667    1.2716   -0.3952 C   0  0  0  0  0  0  0  0  0  0  0  0
   -3.3220    2.1324   -0.0487 O   0  0  0  0  0  0  0  0  0  0  0  0
   -2.6814   -0.1663   -0.0781 C   0  0  0  0  0  0  0  0  0  0  0  0
   -1.5891   -1.0344    0.1824 C   0  0  0  0  0  0  0  0  0  0  0  0
   -0.1986   -0.5325    0.2754 C   0  0  0  0  0  0  0  0  0  0  0  0
    0.7880   -1.0375   -0.5823 C   0  0  0  0  0  0  0  0  0  0  0  0
    2.0938   -0.5429   -0.5238 C   0  0  0  0  0  0  0  0  0  0  0  0
    2.4366    0.4601    0.4007 C   0  0  0  0  0  0  0  0  0  0  0  0
    3.8156    1.0075    0.4432 C   0  0  0  0  0  0  0  0  0  0  0  0
    4.0307    2.3890    0.6051 C   0  0  0  0  0  0  0  0  0  0  0  0
    5.3298    2.9044    0.6404 C   0  0  0  0  0  0  0  0  0  0  0  0
    6.4280    2.0487    0.5153 C   0  0  0  0  0  0  0  0  0  0  0  0
    8.0569    2.6978    0.5603 Cl  0  0  0  0  0  0  0  0  0  0  0  0
    6.2262    0.6749    0.3536 C   0  0  0  0  0  0  0  0  0  0  0  0
    4.9286    0.1555    0.3165 C   0  0  0  0  0  0  0  0  0  0  0  0
    1.4492    0.9440    1.2774 C   0  0  0  0  0  0  0  0  0  0  0  0
    0.1449    0.4467    1.2198 C   0  0  0  0  0  0  0  0  0  0  0  0
   -1.8100   -2.3652    0.3868 N   0  0  0  0  0  0  0  0  0  0  0  0
   -3.0616   -2.9019    0.3842 C   0  0  0  0  0  0  0  0  0  0  0  0
   -3.2421   -4.2762    0.6134 C   0  0  0  0  0  0  0  0  0  0  0  0
   -4.5250   -4.8278    0.6172 C   0  0  0  0  0  0  0  0  0  0  0  0
   -5.6374   -4.0154    0.3932 C   0  0  0  0  0  0  0  0  0  0  0  0
   -5.4733   -2.6470    0.1636 C   0  0  0  0  0  0  0  0  0  0  0  0
   -4.1848   -2.0762    0.1576 C   0  0  0  0  0  0  0  0  0  0  0  0
   -3.9863   -0.7045   -0.0792 C   0  0  0  0  0  0  0  0  0  0  0  0
   -4.9783    0.0412   -0.3133 O   0  0  0  0  0  0  0  0  0  0  0  0
  1  2  1  0
  2  3  1  0
  3  4  1  0
  4  5  2  0
  4  6  1  0
  6  7  4  0
  7  8  1  0
  8  9  4  0
  9 10  4  0
 10 11  4  0
 11 12  1  0
 12 13  4  0
 13 14  4  0
 14 15  4  0
 15 16  1  0
 15 17  4  0
 17 18  4  0
 11 19  4  0
 19 20  4  0
  7 21  4  0
 21 22  4  0
 22 23  4  0
 23 24  4  0
 24 25  4  0
 25 26  4  0
 26 27  4  0
 27 28  4  0
 28 29  2  0
 18 12  4  0
 20  8  4  0
 27 22  4  0
 28  6  4  0
M  END
>  <SMILES>  (2) 
CCOC(=O)c4c(c2ccc(c1ccc(Cl)cc1)cc2)[nH]c3ccccc3c4=O

>  <NumConformers>  (2) 
25

>  <EnergyUnits>  (2) 
RDKit_forcefield

>  <Total_Conformers>  (2) 
25

>  <Energy>  (2) 
67.095406392928638

>  <Energy_Unit>  (2) 
RDKit_forcefield

>  <Rank>  (2) 
2

>  <Conformer_Index>  (2) 
1

$$$$
WDH-1U-10
     RDKit          3D

 29 32  0  0  0  0  0  0  0  0999 V2000
    0.1120    3.6306   -0.8057 C   0  0  0  0  0  0  0  0  0  0  0  0
   -0.9223    2.8937   -1.6417 C   0  0  0  0  0  0  0  0  0  0  0  0
   -1.3384    1.7213   -0.9516 O   0  0  0  0  0  0  0  0  0  0  0  0
   -2.2273    0.7897   -1.4977 C   0  0  0  0  0  0  0  0  0  0  0  0
   -2.7700    1.0155   -2.6144 O   0  0  0  0  0  0  0  0  0  0  0  0
   -2.5354   -0.4623   -0.7550 C   0  0  0  0  0  0  0  0  0  0  0  0
   -1.5653   -1.0835    0.0736 C   0  0  0  0  0  0  0  0  0  0  0  0
   -0.1693   -0.5943    0.1394 C   0  0  0  0  0  0  0  0  0  0  0  0
    0.6269   -0.5544   -1.0150 C   0  0  0  0  0  0  0  0  0  0  0  0
    1.9313   -0.0575   -0.9551 C   0  0  0  0  0  0  0  0  0  0  0  0
    2.4646    0.4010    0.2628 C   0  0  0  0  0  0  0  0  0  0  0  0
    3.8402    0.9554    0.3220 C   0  0  0  0  0  0  0  0  0  0  0  0
    4.8887    0.3473   -0.3933 C   0  0  0  0  0  0  0  0  0  0  0  0
    6.1826    0.8742   -0.3384 C   0  0  0  0  0  0  0  0  0  0  0  0
    6.4447    2.0134    0.4282 C   0  0  0  0  0  0  0  0  0  0  0  0
    8.0686    2.6731    0.4943 Cl  0  0  0  0  0  0  0  0  0  0  0  0
    5.4105    2.6265    1.1413 C   0  0  0  0  0  0  0  0  0  0  0  0
    4.1155    2.1022    1.0902 C   0  0  0  0  0  0  0  0  0  0  0  0
    1.6700    0.3355    1.4217 C   0  0  0  0  0  0  0  0  0  0  0  0
    0.3664   -0.1645    1.3608 C   0  0  0  0  0  0  0  0  0  0  0  0
   -1.9005   -2.1814    0.8106 N   0  0  0  0  0  0  0  0  0  0  0  0
   -3.1422   -2.7383    0.7590 C   0  0  0  0  0  0  0  0  0  0  0  0
   -3.4384   -3.8780    1.5252 C   0  0  0  0  0  0  0  0  0  0  0  0
   -4.7092   -4.4544    1.4692 C   0  0  0  0  0  0  0  0  0  0  0  0
   -5.6940   -3.9007    0.6498 C   0  0  0  0  0  0  0  0  0  0  0  0
   -5.4139   -2.7673   -0.1177 C   0  0  0  0  0  0  0  0  0  0  0  0
   -4.1360   -2.1752   -0.0719 C   0  0  0  0  0  0  0  0  0  0  0  0
   -3.8262   -1.0290   -0.8253 C   0  0  0  0  0  0  0  0  0  0  0  0
   -4.7128   -0.4961   -1.5497 O   0  0  0  0  0  0  0  0  0  0  0  0
  1  2  1  0
  2  3  1  0
  3  4  1  0
  4  5  2  0
  4  6  1  0
  6  7  4  0
  7  8  1  0
  8  9  4  0
  9 10  4  0
 10 11  4  0
 11 12  1  0
 12 13  4  0
 13 14  4  0
 14 15  4  0
 15 16  1  0
 15 17  4  0
 17 18  4  0
 11 19  4  0
 19 20  4  0
  7 21  4  0
 21 22  4  0
 22 23  4  0
 23 24  4  0
 24 25  4  0
 25 26  4  0
 26 27  4  0
 27 28  4  0
 28 29  2  0
 18 12  4  0
 20  8  4  0
 27 22  4  0
 28  6  4  0
M  END
>  <SMILES>  (3) 
CCOC(=O)c4c(c2ccc(c1ccc(Cl)cc1)cc2)[nH]c3ccccc3c4=O

>  <NumConformers>  (3) 
25

>  <EnergyUnits>  (3) 
RDKit_forcefield

>  <Total_Conformers>  (3) 
25

>  <Energy>  (3) 
67.175137970631098

>  <Energy_Unit>  (3) 
RDKit_forcefield

>  <Rank>  (3) 
3

>  <Conformer_Index>  (3) 
2

$$$$
WDH-1U-10
     RDKit          3D

 29 32  0  0  0  0  0  0  0  0999 V2000
    0.5249    2.7834   -2.4124 C   0  0  0  0  0  0  0  0  0  0  0  0
   -0.8760    2.7987   -1.8218 C   0  0  0  0  0  0  0  0  0  0  0  0
   -1.2237    1.4860   -1.3979 O   0  0  0  0  0  0  0  0  0  0  0  0
   -2.4220    1.1891   -0.7404 C   0  0  0  0  0  0  0  0  0  0  0  0
   -3.2928    2.0882   -0.5800 O   0  0  0  0  0  0  0  0  0  0  0  0
   -2.6682   -0.1899   -0.2384 C   0  0  0  0  0  0  0  0  0  0  0  0
   -1.6018   -1.0086    0.2156 C   0  0  0  0  0  0  0  0  0  0  0  0
   -0.2192   -0.4920    0.3334 C   0  0  0  0  0  0  0  0  0  0  0  0
    0.0654    0.5978    1.1701 C   0  0  0  0  0  0  0  0  0  0  0  0
    1.3648    1.1050    1.2498 C   0  0  0  0  0  0  0  0  0  0  0  0
    2.4038    0.5258    0.4996 C   0  0  0  0  0  0  0  0  0  0  0  0
    3.7787    1.0817    0.5617 C   0  0  0  0  0  0  0  0  0  0  0  0
    4.3280    1.4978    1.7888 C   0  0  0  0  0  0  0  0  0  0  0  0
    5.6220    2.0246    1.8434 C   0  0  0  0  0  0  0  0  0  0  0  0
    6.3811    2.1439    0.6757 C   0  0  0  0  0  0  0  0  0  0  0  0
    8.0038    2.8062    0.7468 Cl  0  0  0  0  0  0  0  0  0  0  0  0
    5.8448    1.7354   -0.5488 C   0  0  0  0  0  0  0  0  0  0  0  0
    4.5518    1.2070   -0.6077 C   0  0  0  0  0  0  0  0  0  0  0  0
    2.1172   -0.5820   -0.3185 C   0  0  0  0  0  0  0  0  0  0  0  0
    0.8176   -1.0902   -0.3950 C   0  0  0  0  0  0  0  0  0  0  0  0
   -1.8436   -2.2982    0.5891 N   0  0  0  0  0  0  0  0  0  0  0  0
   -3.0953   -2.8345    0.5764 C   0  0  0  0  0  0  0  0  0  0  0  0
   -3.2992   -4.1637    0.9834 C   0  0  0  0  0  0  0  0  0  0  0  0
   -4.5827   -4.7139    0.9771 C   0  0  0  0  0  0  0  0  0  0  0  0
   -5.6725   -3.9449    0.5660 C   0  0  0  0  0  0  0  0  0  0  0  0
   -5.4849   -2.6217    0.1584 C   0  0  0  0  0  0  0  0  0  0  0  0
   -4.1956   -2.0528    0.1602 C   0  0  0  0  0  0  0  0  0  0  0  0
   -3.9732   -0.7272   -0.2529 C   0  0  0  0  0  0  0  0  0  0  0  0
   -4.9423   -0.0252   -0.6565 O   0  0  0  0  0  0  0  0  0  0  0  0
  1  2  1  0
  2  3  1  0
  3  4  1  0
  4  5  2  0
  4  6  1  0
  6  7  4  0
  7  8  1  0
  8  9  4  0
  9 10  4  0
 10 11  4  0
 11 12  1  0
 12 13  4  0
 13 14  4  0
 14 15  4  0
 15 16  1  0
 15 17  4  0
 17 18  4  0
 11 19  4  0
 19 20  4  0
  7 21  4  0
 21 22  4  0
 22 23  4  0
 23 24  4  0
 24 25  4  0
 25 26  4  0
 26 27  4  0
 27 28  4  0
 28 29  2  0
 18 12  4  0
 20  8  4  0
 27 22  4  0
 28  6  4  0
M  END
>  <SMILES>  (4) 
CCOC(=O)c4c(c2ccc(c1ccc(Cl)cc1)cc2)[nH]c3ccccc3c4=O

>  <NumConformers>  (4) 
25

>  <EnergyUnits>  (4) 
RDKit_forcefield

>  <Total_Conformers>  (4) 
25

>  <Energy>  (4) 
67.17513797735954

>  <Energy_Unit>  (4) 
RDKit_forcefield

>  <Rank>  (4) 
4

>  <Conformer_Index>  (4) 
3

$$$$
WDH-1U-10
     RDKit          3D

 29 32  0  0  0  0  0  0  0  0999 V2000
    0.1342    2.7154   -2.5916 C   0  0  0  0  0  0  0  0  0  0  0  0
   -1.0480    2.9873   -1.6694 C   0  0  0  0  0  0  0  0  0  0  0  0
   -1.4221    1.8040   -0.9668 O   0  0  0  0  0  0  0  0  0  0  0  0
   -2.1648    0.7649   -1.5426 C   0  0  0  0  0  0  0  0  0  0  0  0
   -2.5815    0.8649   -2.7295 O   0  0  0  0  0  0  0  0  0  0  0  0
   -2.4887   -0.4431   -0.7407 C   0  0  0  0  0  0  0  0  0  0  0  0
   -1.5636   -0.9765    0.1918 C   0  0  0  0  0  0  0  0  0  0  0  0
   -0.1811   -0.4571    0.3005 C   0  0  0  0  0  0  0  0  0  0  0  0
    0.2948    0.0239    1.5278 C   0  0  0  0  0  0  0  0  0  0  0  0
    1.5989    0.5152    1.6350 C   0  0  0  0  0  0  0  0  0  0  0  0
    2.4537    0.5215    0.5179 C   0  0  0  0  0  0  0  0  0  0  0  0
    3.8333    1.0595    0.6253 C   0  0  0  0  0  0  0  0  0  0  0  0
    4.6208    0.7900    1.7603 C   0  0  0  0  0  0  0  0  0  0  0  0
    5.9192    1.2992    1.8589 C   0  0  0  0  0  0  0  0  0  0  0  0
    6.4458    2.0834    0.8286 C   0  0  0  0  0  0  0  0  0  0  0  0
    8.0747    2.7218    0.9553 Cl  0  0  0  0  0  0  0  0  0  0  0  0
    5.6723    2.3585   -0.3027 C   0  0  0  0  0  0  0  0  0  0  0  0
    4.3739    1.8504   -0.4059 C   0  0  0  0  0  0  0  0  0  0  0  0
    1.9791    0.0137   -0.7045 C   0  0  0  0  0  0  0  0  0  0  0  0
    0.6737   -0.4724   -0.8116 C   0  0  0  0  0  0  0  0  0  0  0  0
   -1.9241   -2.0277    0.9834 N   0  0  0  0  0  0  0  0  0  0  0  0
   -3.1474   -2.6194    0.8910 C   0  0  0  0  0  0  0  0  0  0  0  0
   -3.4703   -3.7088    1.7172 C   0  0  0  0  0  0  0  0  0  0  0  0
   -4.7213   -4.3218    1.6189 C   0  0  0  0  0  0  0  0  0  0  0  0
   -5.6595   -3.8551    0.6970 C   0  0  0  0  0  0  0  0  0  0  0  0
   -5.3524   -2.7726   -0.1314 C   0  0  0  0  0  0  0  0  0  0  0  0
   -4.0939   -2.1447   -0.0438 C   0  0  0  0  0  0  0  0  0  0  0  0
   -3.7582   -1.0477   -0.8566 C   0  0  0  0  0  0  0  0  0  0  0  0
   -4.6035   -0.5911   -1.6763 O   0  0  0  0  0  0  0  0  0  0  0  0
  1  2  1  0
  2  3  1  0
  3  4  1  0
  4  5  2  0
  4  6  1  0
  6  7  4  0
  7  8  1  0
  8  9  4  0
  9 10  4  0
 10 11  4  0
 11 12  1  0
 12 13  4  0
 13 14  4  0
 14 15  4  0
 15 16  1  0
 15 17  4  0
 17 18  4  0
 11 19  4  0
 19 20  4  0
  7 21  4  0
 21 22  4  0
 22 23  4  0
 23 24  4  0
 24 25  4  0
 25 26  4  0
 26 27  4  0
 27 28  4  0
 28 29  2  0
 18 12  4  0
 20  8  4  0
 27 22  4  0
 28  6  4  0
M  END
>  <SMILES>  (5) 
CCOC(=O)c4c(c2ccc(c1ccc(Cl)cc1)cc2)[nH]c3ccccc3c4=O

>  <NumConformers>  (5) 
25

>  <EnergyUnits>  (5) 
RDKit_forcefield

>  <Total_Conformers>  (5) 
25

>  <Energy>  (5) 
68.337346741835788

>  <Energy_Unit>  (5) 
RDKit_forcefield

>  <Rank>  (5) 
5

>  <Conformer_Index>  (5) 
4

$$$$
WDH-1U-10
     RDKit          3D

 29 32  0  0  0  0  0  0  0  0999 V2000
   -0.1085    3.2008   -1.9624 C   0  0  0  0  0  0  0  0  0  0  0  0
   -0.5881    2.0677   -2.8614 C   0  0  0  0  0  0  0  0  0  0  0  0
   -0.9914    0.9428   -2.0832 O   0  0  0  0  0  0  0  0  0  0  0  0
   -2.2168    0.8687   -1.4080 C   0  0  0  0  0  0  0  0  0  0  0  0
   -3.0533    1.8084   -1.5066 O   0  0  0  0  0  0  0  0  0  0  0  0
   -2.5429   -0.3348   -0.6002 C   0  0  0  0  0  0  0  0  0  0  0  0
   -1.5452   -1.0133    0.1440 C   0  0  0  0  0  0  0  0  0  0  0  0
   -0.1733   -0.4728    0.2802 C   0  0  0  0  0  0  0  0  0  0  0  0
    0.9285   -1.2434   -0.1151 C   0  0  0  0  0  0  0  0  0  0  0  0
    2.2252   -0.7373    0.0115 C   0  0  0  0  0  0  0  0  0  0  0  0
    2.4420    0.5448    0.5481 C   0  0  0  0  0  0  0  0  0  0  0  0
    3.8173    1.0914    0.6667 C   0  0  0  0  0  0  0  0  0  0  0  0
    4.0794    2.4395    0.3576 C   0  0  0  0  0  0  0  0  0  0  0  0
    5.3752    2.9526    0.4674 C   0  0  0  0  0  0  0  0  0  0  0  0
    6.4233    2.1284    0.8868 C   0  0  0  0  0  0  0  0  0  0  0  0
    8.0482    2.7749    1.0242 Cl  0  0  0  0  0  0  0  0  0  0  0  0
    6.1748    0.7881    1.1964 C   0  0  0  0  0  0  0  0  0  0  0  0
    4.8806    0.2705    1.0870 C   0  0  0  0  0  0  0  0  0  0  0  0
    1.3343    1.3031    0.9669 C   0  0  0  0  0  0  0  0  0  0  0  0
    0.0385    0.7980    0.8352 C   0  0  0  0  0  0  0  0  0  0  0  0
   -1.8527   -2.1706    0.7983 N   0  0  0  0  0  0  0  0  0  0  0  0
   -3.1100   -2.6941    0.7942 C   0  0  0  0  0  0  0  0  0  0  0  0
   -3.3841   -3.8812    1.4938 C   0  0  0  0  0  0  0  0  0  0  0  0
   -4.6743   -4.4158    1.4970 C   0  0  0  0  0  0  0  0  0  0  0  0
   -5.7010   -3.7722    0.8044 C   0  0  0  0  0  0  0  0  0  0  0  0
   -5.4433   -2.5908    0.1043 C   0  0  0  0  0  0  0  0  0  0  0  0
   -4.1466   -2.0395    0.0926 C   0  0  0  0  0  0  0  0  0  0  0  0
   -3.8533   -0.8574   -0.6100 C   0  0  0  0  0  0  0  0  0  0  0  0
   -4.7612   -0.2758   -1.2676 O   0  0  0  0  0  0  0  0  0  0  0  0
  1  2  1  0
  2  3  1  0
  3  4  1  0
  4  5  2  0
  4  6  1  0
  6  7  4  0
  7  8  1  0
  8  9  4  0
  9 10  4  0
 10 11  4  0
 11 12  1  0
 12 13  4  0
 13 14  4  0
 14 15  4  0
 15 16  1  0
 15 17  4  0
 17 18  4  0
 11 19  4  0
 19 20  4  0
  7 21  4  0
 21 22  4  0
 22 23  4  0
 23 24  4  0
 24 25  4  0
 25 26  4  0
 26 27  4  0
 27 28  4  0
 28 29  2  0
 18 12  4  0
 20  8  4  0
 27 22  4  0
 28  6  4  0
M  END
>  <SMILES>  (6) 
CCOC(=O)c4c(c2ccc(c1ccc(Cl)cc1)cc2)[nH]c3ccccc3c4=O

>  <NumConformers>  (6) 
25

>  <EnergyUnits>  (6) 
RDKit_forcefield

>  <Total_Conformers>  (6) 
25

>  <Energy>  (6) 
68.337346751027241

>  <Energy_Unit>  (6) 
RDKit_forcefield

>  <Rank>  (6) 
6

>  <Conformer_Index>  (6) 
5

$$$$
WDH-1U-10
     RDKit          3D

 29 32  0  0  0  0  0  0  0  0999 V2000
    0.3270    2.2868   -2.9830 C   0  0  0  0  0  0  0  0  0  0  0  0
   -0.9094    2.6953   -2.1915 C   0  0  0  0  0  0  0  0  0  0  0  0
   -1.3384    1.6328   -1.3425 O   0  0  0  0  0  0  0  0  0  0  0  0
   -2.0470    0.5146   -1.8010 C   0  0  0  0  0  0  0  0  0  0  0  0
   -2.3799    0.4287   -3.0152 O   0  0  0  0  0  0  0  0  0  0  0  0
   -2.4344   -0.5561   -0.8467 C   0  0  0  0  0  0  0  0  0  0  0  0
   -1.5822   -0.9326    0.2218 C   0  0  0  0  0  0  0  0  0  0  0  0
   -0.2084   -0.3946    0.3491 C   0  0  0  0  0  0  0  0  0  0  0  0
    0.1787    0.2750    1.5177 C   0  0  0  0  0  0  0  0  0  0  0  0
    1.4758    0.7795    1.6449 C   0  0  0  0  0  0  0  0  0  0  0  0
    2.4135    0.6086    0.6103 C   0  0  0  0  0  0  0  0  0  0  0  0
    3.7892    1.1523    0.7408 C   0  0  0  0  0  0  0  0  0  0  0  0
    4.8984    0.4084    0.2963 C   0  0  0  0  0  0  0  0  0  0  0  0
    6.1923    0.9236    0.4187 C   0  0  0  0  0  0  0  0  0  0  0  0
    6.3948    2.1857    0.9841 C   0  0  0  0  0  0  0  0  0  0  0  0
    8.0192    2.8300    1.1357 Cl  0  0  0  0  0  0  0  0  0  0  0  0
    5.3008    2.9338    1.4283 C   0  0  0  0  0  0  0  0  0  0  0  0
    4.0053    2.4220    1.3088 C   0  0  0  0  0  0  0  0  0  0  0  0
    2.0264   -0.0847   -0.5504 C   0  0  0  0  0  0  0  0  0  0  0  0
    0.7271   -0.5818   -0.6794 C   0  0  0  0  0  0  0  0  0  0  0  0
   -2.0048   -1.8505    1.1388 N   0  0  0  0  0  0  0  0  0  0  0  0
   -3.2212   -2.4567    1.0511 C   0  0  0  0  0  0  0  0  0  0  0  0
   -3.6088   -3.4066    2.0108 C   0  0  0  0  0  0  0  0  0  0  0  0
   -4.8527   -4.0349    1.9186 C   0  0  0  0  0  0  0  0  0  0  0  0
   -5.7193   -3.7225    0.8701 C   0  0  0  0  0  0  0  0  0  0  0  0
   -5.3472   -2.7798   -0.0918 C   0  0  0  0  0  0  0  0  0  0  0  0
   -4.0951   -2.1384   -0.0120 C   0  0  0  0  0  0  0  0  0  0  0  0
   -3.6955   -1.1789   -0.9588 C   0  0  0  0  0  0  0  0  0  0  0  0
   -4.4770   -0.8601   -1.8982 O   0  0  0  0  0  0  0  0  0  0  0  0
  1  2  1  0
  2  3  1  0
  3  4  1  0
  4  5  2  0
  4  6  1  0
  6  7  4  0
  7  8  1  0
  8  9  4  0
  9 10  4  0
 10 11  4  0
 11 12  1  0
 12 13  4  0
 13 14  4  0
 14 15  4  0
 15 16  1  0
 15 17  4  0
 17 18  4  0
 11 19  4  0
 19 20  4  0
  7 21  4  0
 21 22  4  0
 22 23  4  0
 23 24  4  0
 24 25  4  0
 25 26  4  0
 26 27  4  0
 27 28  4  0
 28 29  2  0
 18 12  4  0
 20  8  4  0
 27 22  4  0
 28  6  4  0
M  END
>  <SMILES>  (7) 
CCOC(=O)c4c(c2ccc(c1ccc(Cl)cc1)cc2)[nH]c3ccccc3c4=O

>  <NumConformers>  (7) 
25

>  <EnergyUnits>  (7) 
RDKit_forcefield

>  <Total_Conformers>  (7) 
25

>  <Energy>  (7) 
68.495240268988098

>  <Energy_Unit>  (7) 
RDKit_forcefield

>  <Rank>  (7) 
7

>  <Conformer_Index>  (7) 
6

$$$$
WDH-1U-10
     RDKit          3D

 29 32  0  0  0  0  0  0  0  0999 V2000
    0.0143    2.9213   -2.3876 C   0  0  0  0  0  0  0  0  0  0  0  0
   -0.4050    1.6716   -3.1521 C   0  0  0  0  0  0  0  0  0  0  0  0
   -0.8593    0.6604   -2.2551 O   0  0  0  0  0  0  0  0  0  0  0  0
   -2.1244    0.6718   -1.6535 C   0  0  0  0  0  0  0  0  0  0  0  0
   -2.9499    1.5855   -1.9296 O   0  0  0  0  0  0  0  0  0  0  0  0
   -2.5046   -0.4137   -0.7131 C   0  0  0  0  0  0  0  0  0  0  0  0
   -1.5566   -0.9845    0.1730 C   0  0  0  0  0  0  0  0  0  0  0  0
   -0.1918   -0.4282    0.3176 C   0  0  0  0  0  0  0  0  0  0  0  0
    0.9264   -1.2425    0.0936 C   0  0  0  0  0  0  0  0  0  0  0  0
    2.2165   -0.7237    0.2343 C   0  0  0  0  0  0  0  0  0  0  0  0
    2.4099    0.6160    0.6173 C   0  0  0  0  0  0  0  0  0  0  0  0
    3.7801    1.1707    0.7581 C   0  0  0  0  0  0  0  0  0  0  0  0
    4.7834    0.8428   -0.1732 C   0  0  0  0  0  0  0  0  0  0  0  0
    6.0723    1.3681   -0.0409 C   0  0  0  0  0  0  0  0  0  0  0  0
    6.3755    2.2250    1.0209 C   0  0  0  0  0  0  0  0  0  0  0  0
    7.9935    2.8823    1.1848 Cl  0  0  0  0  0  0  0  0  0  0  0  0
    5.3873    2.5574    1.9519 C   0  0  0  0  0  0  0  0  0  0  0  0
    4.0968    2.0351    1.8228 C   0  0  0  0  0  0  0  0  0  0  0  0
    1.2840    1.4220    0.8635 C   0  0  0  0  0  0  0  0  0  0  0  0
   -0.0051    0.9041    0.7150 C   0  0  0  0  0  0  0  0  0  0  0  0
   -1.9092   -2.0445    0.9567 N   0  0  0  0  0  0  0  0  0  0  0  0
   -3.1670   -2.5667    0.9478 C   0  0  0  0  0  0  0  0  0  0  0  0
   -3.4888   -3.6501    1.7823 C   0  0  0  0  0  0  0  0  0  0  0  0
   -4.7800   -4.1824    1.7802 C   0  0  0  0  0  0  0  0  0  0  0  0
   -5.7601   -3.6396    0.9478 C   0  0  0  0  0  0  0  0  0  0  0  0
   -5.4546   -2.5620    0.1126 C   0  0  0  0  0  0  0  0  0  0  0  0
   -4.1563   -2.0142    0.1046 C   0  0  0  0  0  0  0  0  0  0  0  0
   -3.8151   -0.9361   -0.7310 C   0  0  0  0  0  0  0  0  0  0  0  0
   -4.6791   -0.4499   -1.5133 O   0  0  0  0  0  0  0  0  0  0  0  0
  1  2  1  0
  2  3  1  0
  3  4  1  0
  4  5  2  0
  4  6  1  0
  6  7  4  0
  7  8  1  0
  8  9  4  0
  9 10  4  0
 10 11  4  0
 11 12  1  0
 12 13  4  0
 13 14  4  0
 14 15  4  0
 15 16  1  0
 15 17  4  0
 17 18  4  0
 11 19  4  0
 19 20  4  0
  7 21  4  0
 21 22  4  0
 22 23  4  0
 23 24  4  0
 24 25  4  0
 25 26  4  0
 26 27  4  0
 27 28  4  0
 28 29  2  0
 18 12  4  0
 20  8  4  0
 27 22  4  0
 28  6  4  0
M  END
>  <SMILES>  (8) 
CCOC(=O)c4c(c2ccc(c1ccc(Cl)cc1)cc2)[nH]c3ccccc3c4=O

>  <NumConformers>  (8) 
25

>  <EnergyUnits>  (8) 
RDKit_forcefield

>  <Total_Conformers>  (8) 
25

>  <Energy>  (8) 
68.495240273985075

>  <Energy_Unit>  (8) 
RDKit_forcefield

>  <Rank>  (8) 
8

>  <Conformer_Index>  (8) 
7

$$$$
WDH-1U-10
     RDKit          3D

 29 32  0  0  0  0  0  0  0  0999 V2000
   -2.7920    3.0771   -4.0137 C   0  0  0  0  0  0  0  0  0  0  0  0
   -1.6817    2.1388   -3.5693 C   0  0  0  0  0  0  0  0  0  0  0  0
   -2.1664    1.2799   -2.5428 O   0  0  0  0  0  0  0  0  0  0  0  0
   -1.3682    0.3068   -1.9329 C   0  0  0  0  0  0  0  0  0  0  0  0
   -0.1714    0.1495   -2.3013 O   0  0  0  0  0  0  0  0  0  0  0  0
   -1.9398   -0.5539   -0.8654 C   0  0  0  0  0  0  0  0  0  0  0  0
   -1.1612   -0.9870    0.2392 C   0  0  0  0  0  0  0  0  0  0  0  0
    0.2191   -0.4954    0.4657 C   0  0  0  0  0  0  0  0  0  0  0  0
    1.2734   -1.4074    0.6148 C   0  0  0  0  0  0  0  0  0  0  0  0
    2.5740   -0.9519    0.8479 C   0  0  0  0  0  0  0  0  0  0  0  0
    2.8419    0.4256    0.9458 C   0  0  0  0  0  0  0  0  0  0  0  0
    4.2241    0.9108    1.1905 C   0  0  0  0  0  0  0  0  0  0  0  0
    4.7132    2.0465    0.5178 C   0  0  0  0  0  0  0  0  0  0  0  0
    6.0149    2.5015    0.7490 C   0  0  0  0  0  0  0  0  0  0  0  0
    6.8427    1.8306    1.6534 C   0  0  0  0  0  0  0  0  0  0  0  0
    8.4752    2.4039    1.9420 Cl  0  0  0  0  0  0  0  0  0  0  0  0
    6.3678    0.7020    2.3276 C   0  0  0  0  0  0  0  0  0  0  0  0
    5.0672    0.2430    2.0988 C   0  0  0  0  0  0  0  0  0  0  0  0
    1.7782    1.3360    0.8113 C   0  0  0  0  0  0  0  0  0  0  0  0
    0.4781    0.8791    0.5798 C   0  0  0  0  0  0  0  0  0  0  0  0
   -1.6986   -1.8459    1.1538 N   0  0  0  0  0  0  0  0  0  0  0  0
   -2.9839   -2.2878    1.0677 C   0  0  0  0  0  0  0  0  0  0  0  0
   -3.4982   -3.1611    2.0407 C   0  0  0  0  0  0  0  0  0  0  0  0
   -4.8181   -3.6097    1.9584 C   0  0  0  0  0  0  0  0  0  0  0  0
   -5.6358   -3.1917    0.9074 C   0  0  0  0  0  0  0  0  0  0  0  0
   -5.1381   -2.3233   -0.0673 C   0  0  0  0  0  0  0  0  0  0  0  0
   -3.8084   -1.8620    0.0032 C   0  0  0  0  0  0  0  0  0  0  0  0
   -3.2757   -0.9946   -0.9665 C   0  0  0  0  0  0  0  0  0  0  0  0
   -3.9905   -0.6277   -1.9409 O   0  0  0  0  0  0  0  0  0  0  0  0
  1  2  1  0
  2  3  1  0
  3  4  1  0
  4  5  2  0
  4  6  1  0
  6  7  4  0
  7  8  1  0
  8  9  4  0
  9 10  4  0
 10 11  4  0
 11 12  1  0
 12 13  4  0
 13 14  4  0
 14 15  4  0
 15 16  1  0
 15 17  4  0
 17 18  4  0
 11 19  4  0
 19 20  4  0
  7 21  4  0
 21 22  4  0
 22 23  4  0
 23 24  4  0
 24 25  4  0
 25 26  4  0
 26 27  4  0
 27 28  4  0
 28 29  2  0
 18 12  4  0
 20  8  4  0
 27 22  4  0
 28  6  4  0
M  END
>  <SMILES>  (9) 
CCOC(=O)c4c(c2ccc(c1ccc(Cl)cc1)cc2)[nH]c3ccccc3c4=O

>  <NumConformers>  (9) 
25

>  <EnergyUnits>  (9) 
RDKit_forcefield

>  <Total_Conformers>  (9) 
25

>  <Energy>  (9) 
68.917124887667342

>  <Energy_Unit>  (9) 
RDKit_forcefield

>  <Rank>  (9) 
9

>  <Conformer_Index>  (9) 
8

$$$$
WDH-1U-10
     RDKit          3D

 29 32  0  0  0  0  0  0  0  0999 V2000
   -2.3581    2.1027   -4.8365 C   0  0  0  0  0  0  0  0  0  0  0  0
   -1.7406    2.2709   -3.4577 C   0  0  0  0  0  0  0  0  0  0  0  0
   -2.1210    1.1779   -2.6289 O   0  0  0  0  0  0  0  0  0  0  0  0
   -1.7019    1.0561   -1.3001 C   0  0  0  0  0  0  0  0  0  0  0  0
   -0.9718    1.9466   -0.7838 O   0  0  0  0  0  0  0  0  0  0  0  0
   -2.1359   -0.1136   -0.4936 C   0  0  0  0  0  0  0  0  0  0  0  0
   -1.2860   -0.7067    0.4759 C   0  0  0  0  0  0  0  0  0  0  0  0
    0.1260   -0.2865    0.6422 C   0  0  0  0  0  0  0  0  0  0  0  0
    1.0167   -0.3303   -0.4415 C   0  0  0  0  0  0  0  0  0  0  0  0
    2.3510    0.0498   -0.2748 C   0  0  0  0  0  0  0  0  0  0  0  0
    2.8226    0.4688    0.9823 C   0  0  0  0  0  0  0  0  0  0  0  0
    4.2405    0.8742    1.1596 C   0  0  0  0  0  0  0  0  0  0  0  0
    4.8925    1.6438    0.1778 C   0  0  0  0  0  0  0  0  0  0  0  0
    6.2270    2.0250    0.3466 C   0  0  0  0  0  0  0  0  0  0  0  0
    6.9264    1.6427    1.4948 C   0  0  0  0  0  0  0  0  0  0  0  0
    8.6008    2.1219    1.7038 Cl  0  0  0  0  0  0  0  0  0  0  0  0
    6.2894    0.8780    2.4762 C   0  0  0  0  0  0  0  0  0  0  0  0
    4.9547    0.4954    2.3119 C   0  0  0  0  0  0  0  0  0  0  0  0
    1.9299    0.4943    2.0691 C   0  0  0  0  0  0  0  0  0  0  0  0
    0.5952    0.1153    1.9006 C   0  0  0  0  0  0  0  0  0  0  0  0
   -1.7522   -1.7255    1.2555 N   0  0  0  0  0  0  0  0  0  0  0  0
   -3.0106   -2.2278    1.1184 C   0  0  0  0  0  0  0  0  0  0  0  0
   -3.4423   -3.2867    1.9347 C   0  0  0  0  0  0  0  0  0  0  0  0
   -4.7298   -3.8082    1.7909 C   0  0  0  0  0  0  0  0  0  0  0  0
   -5.5966   -3.2799    0.8330 C   0  0  0  0  0  0  0  0  0  0  0  0
   -5.1809   -2.2270    0.0140 C   0  0  0  0  0  0  0  0  0  0  0  0
   -3.8845   -1.6911    0.1475 C   0  0  0  0  0  0  0  0  0  0  0  0
   -3.4398   -0.6263   -0.6555 C   0  0  0  0  0  0  0  0  0  0  0  0
   -4.2186   -0.1154   -1.5083 O   0  0  0  0  0  0  0  0  0  0  0  0
  1  2  1  0
  2  3  1  0
  3  4  1  0
  4  5  2  0
  4  6  1  0
  6  7  4  0
  7  8  1  0
  8  9  4  0
  9 10  4  0
 10 11  4  0
 11 12  1  0
 12 13  4  0
 13 14  4  0
 14 15  4  0
 15 16  1  0
 15 17  4  0
 17 18  4  0
 11 19  4  0
 19 20  4  0
  7 21  4  0
 21 22  4  0
 22 23  4  0
 23 24  4  0
 24 25  4  0
 25 26  4  0
 26 27  4  0
 27 28  4  0
 28 29  2  0
 18 12  4  0
 20  8  4  0
 27 22  4  0
 28  6  4  0
M  END
>  <SMILES>  (10) 
CCOC(=O)c4c(c2ccc(c1ccc(Cl)cc1)cc2)[nH]c3ccccc3c4=O

>  <NumConformers>  (10) 
25

>  <EnergyUnits>  (10) 
RDKit_forcefield

>  <Total_Conformers>  (10) 
25

>  <Energy>  (10) 
68.917124895567255

>  <Energy_Unit>  (10) 
RDKit_forcefield

>  <Rank>  (10) 
10

>  <Conformer_Index>  (10) 
9

$$$$
WDH-1U-10
     RDKit          3D

 29 32  0  0  0  0  0  0  0  0999 V2000
   -2.9734    3.4170   -3.5884 C   0  0  0  0  0  0  0  0  0  0  0  0
   -1.8338    2.4605   -3.2769 C   0  0  0  0  0  0  0  0  0  0  0  0
   -2.2702    1.4921   -2.3292 O   0  0  0  0  0  0  0  0  0  0  0  0
   -1.4365    0.4779   -1.8472 C   0  0  0  0  0  0  0  0  0  0  0  0
   -0.2500    0.3827   -2.2666 O   0  0  0  0  0  0  0  0  0  0  0  0
   -1.9586   -0.4983   -0.8565 C   0  0  0  0  0  0  0  0  0  0  0  0
   -1.1369   -1.0272    0.1726 C   0  0  0  0  0  0  0  0  0  0  0  0
    0.2422   -0.5353    0.4048 C   0  0  0  0  0  0  0  0  0  0  0  0
    1.3153   -1.4372    0.4231 C   0  0  0  0  0  0  0  0  0  0  0  0
    2.6158   -0.9833    0.6600 C   0  0  0  0  0  0  0  0  0  0  0  0
    2.8648    0.3811    0.8948 C   0  0  0  0  0  0  0  0  0  0  0  0
    4.2469    0.8639    1.1452 C   0  0  0  0  0  0  0  0  0  0  0  0
    4.4970    1.8412    2.1270 C   0  0  0  0  0  0  0  0  0  0  0  0
    5.7989    2.2940    2.3610 C   0  0  0  0  0  0  0  0  0  0  0  0
    6.8653    1.7786    1.6188 C   0  0  0  0  0  0  0  0  0  0  0  0
    8.4977    2.3489    1.9139 Cl  0  0  0  0  0  0  0  0  0  0  0  0
    6.6290    0.8082    0.6410 C   0  0  0  0  0  0  0  0  0  0  0  0
    5.3288    0.3519    0.4045 C   0  0  0  0  0  0  0  0  0  0  0  0
    1.7827    1.2797    0.8919 C   0  0  0  0  0  0  0  0  0  0  0  0
    0.4831    0.8246    0.6543 C   0  0  0  0  0  0  0  0  0  0  0  0
   -1.6300   -1.9851    1.0106 N   0  0  0  0  0  0  0  0  0  0  0  0
   -2.9104   -2.4403    0.9201 C   0  0  0  0  0  0  0  0  0  0  0  0
   -3.3782   -3.4182    1.8139 C   0  0  0  0  0  0  0  0  0  0  0  0
   -4.6929   -3.8812    1.7275 C   0  0  0  0  0  0  0  0  0  0  0  0
   -5.5516   -3.3736    0.7513 C   0  0  0  0  0  0  0  0  0  0  0  0
   -5.1003   -2.4007   -0.1442 C   0  0  0  0  0  0  0  0  0  0  0  0
   -3.7764   -1.9237   -0.0686 C   0  0  0  0  0  0  0  0  0  0  0  0
   -3.2901   -0.9518   -0.9603 C   0  0  0  0  0  0  0  0  0  0  0  0
   -4.0426   -0.5009   -1.8688 O   0  0  0  0  0  0  0  0  0  0  0  0
  1  2  1  0
  2  3  1  0
  3  4  1  0
  4  5  2  0
  4  6  1  0
  6  7  4  0
  7  8  1  0
  8  9  4  0
  9 10  4  0
 10 11  4  0
 11 12  1  0
 12 13  4  0
 13 14  4  0
 14 15  4  0
 15 16  1  0
 15 17  4  0
 17 18  4  0
 11 19  4  0
 19 20  4  0
  7 21  4  0
 21 22  4  0
 22 23  4  0
 23 24  4  0
 24 25  4  0
 25 26  4  0
 26 27  4  0
 27 28  4  0
 28 29  2  0
 18 12  4  0
 20  8  4  0
 27 22  4  0
 28  6  4  0
M  END
>  <SMILES>  (11) 
CCOC(=O)c4c(c2ccc(c1ccc(Cl)cc1)cc2)[nH]c3ccccc3c4=O

>  <NumConformers>  (11) 
25

>  <EnergyUnits>  (11) 
RDKit_forcefield

>  <Total_Conformers>  (11) 
25

>  <Energy>  (11) 
68.935153390755588

>  <Energy_Unit>  (11) 
RDKit_forcefield

>  <Rank>  (11) 
11

>  <Conformer_Index>  (11) 
10

$$$$
WDH-1U-10
     RDKit          3D

 29 32  0  0  0  0  0  0  0  0999 V2000
   -2.5124    2.4535   -4.5893 C   0  0  0  0  0  0  0  0  0  0  0  0
   -1.8612    2.5180   -3.2172 C   0  0  0  0  0  0  0  0  0  0  0  0
   -2.2044    1.3546   -2.4721 O   0  0  0  0  0  0  0  0  0  0  0  0
   -1.7490    1.1310   -1.1687 C   0  0  0  0  0  0  0  0  0  0  0  0
   -1.0180    1.9878   -0.5992 O   0  0  0  0  0  0  0  0  0  0  0  0
   -2.1456   -0.1076   -0.4506 C   0  0  0  0  0  0  0  0  0  0  0  0
   -1.2629   -0.7639    0.4462 C   0  0  0  0  0  0  0  0  0  0  0  0
    0.1466   -0.3354    0.6124 C   0  0  0  0  0  0  0  0  0  0  0  0
    0.6408   -0.0275    1.8877 C   0  0  0  0  0  0  0  0  0  0  0  0
    1.9734    0.3591    2.0546 C   0  0  0  0  0  0  0  0  0  0  0  0
    2.8398    0.4332    0.9489 C   0  0  0  0  0  0  0  0  0  0  0  0
    4.2558    0.8452    1.1258 C   0  0  0  0  0  0  0  0  0  0  0  0
    5.2844    0.1957    0.4175 C   0  0  0  0  0  0  0  0  0  0  0  0
    6.6165    0.5853    0.5859 C   0  0  0  0  0  0  0  0  0  0  0  0
    6.9380    1.6267    1.4610 C   0  0  0  0  0  0  0  0  0  0  0  0
    8.6101    2.1139    1.6699 Cl  0  0  0  0  0  0  0  0  0  0  0  0
    5.9251    2.2793    2.1693 C   0  0  0  0  0  0  0  0  0  0  0  0
    4.5917    1.8922    2.0047 C   0  0  0  0  0  0  0  0  0  0  0  0
    2.3438    0.1072   -0.3263 C   0  0  0  0  0  0  0  0  0  0  0  0
    1.0109   -0.2786   -0.4918 C   0  0  0  0  0  0  0  0  0  0  0  0
   -1.6944   -1.8506    1.1504 N   0  0  0  0  0  0  0  0  0  0  0  0
   -2.9485   -2.3607    1.0028 C   0  0  0  0  0  0  0  0  0  0  0  0
   -3.3440   -3.4898    1.7395 C   0  0  0  0  0  0  0  0  0  0  0  0
   -4.6270   -4.0189    1.5844 C   0  0  0  0  0  0  0  0  0  0  0  0
   -5.5254   -3.4284    0.6944 C   0  0  0  0  0  0  0  0  0  0  0  0
   -5.1459   -2.3053   -0.0451 C   0  0  0  0  0  0  0  0  0  0  0  0
   -3.8544   -1.7608    0.1007 C   0  0  0  0  0  0  0  0  0  0  0  0
   -3.4456   -0.6267   -0.6226 C   0  0  0  0  0  0  0  0  0  0  0  0
   -4.2532   -0.0607   -1.4115 O   0  0  0  0  0  0  0  0  0  0  0  0
  1  2  1  0
  2  3  1  0
  3  4  1  0
  4  5  2  0
  4  6  1  0
  6  7  4  0
  7  8  1  0
  8  9  4  0
  9 10  4  0
 10 11  4  0
 11 12  1  0
 12 13  4  0
 13 14  4  0
 14 15  4  0
 15 16  1  0
 15 17  4  0
 17 18  4  0
 11 19  4  0
 19 20  4  0
  7 21  4  0
 21 22  4  0
 22 23  4  0
 23 24  4  0
 24 25  4  0
 25 26  4  0
 26 27  4  0
 27 28  4  0
 28 29  2  0
 18 12  4  0
 20  8  4  0
 27 22  4  0
 28  6  4  0
M  END
>  <SMILES>  (12) 
CCOC(=O)c4c(c2ccc(c1ccc(Cl)cc1)cc2)[nH]c3ccccc3c4=O

>  <NumConformers>  (12) 
25

>  <EnergyUnits>  (12) 
RDKit_forcefield

>  <Total_Conformers>  (12) 
25

>  <Energy>  (12) 
68.935153395978872

>  <Energy_Unit>  (12) 
RDKit_forcefield

>  <Rank>  (12) 
12

>  <Conformer_Index>  (12) 
11

$$$$
WDH-1U-10
     RDKit          3D

 29 32  0  0  0  0  0  0  0  0999 V2000
   -1.4600    3.0945   -3.2008 C   0  0  0  0  0  0  0  0  0  0  0  0
   -0.3736    2.1634   -2.6763 C   0  0  0  0  0  0  0  0  0  0  0  0
   -0.9072    1.2638   -1.7077 O   0  0  0  0  0  0  0  0  0  0  0  0
   -1.6754    0.1390   -2.0343 C   0  0  0  0  0  0  0  0  0  0  0  0
   -1.9390   -0.1197   -3.2409 O   0  0  0  0  0  0  0  0  0  0  0  0
   -2.1845   -0.7475   -0.9550 C   0  0  0  0  0  0  0  0  0  0  0  0
   -1.4315   -0.9808    0.2247 C   0  0  0  0  0  0  0  0  0  0  0  0
   -0.0502   -0.4682    0.3847 C   0  0  0  0  0  0  0  0  0  0  0  0
    0.2745    0.3432    1.4805 C   0  0  0  0  0  0  0  0  0  0  0  0
    1.5740    0.8337    1.6354 C   0  0  0  0  0  0  0  0  0  0  0  0
    2.5747    0.5132    0.7003 C   0  0  0  0  0  0  0  0  0  0  0  0
    3.9532    1.0426    0.8580 C   0  0  0  0  0  0  0  0  0  0  0  0
    4.5574    1.0999    2.1281 C   0  0  0  0  0  0  0  0  0  0  0  0
    5.8551    1.5992    2.2737 C   0  0  0  0  0  0  0  0  0  0  0  0
    6.5642    2.0479    1.1558 C   0  0  0  0  0  0  0  0  0  0  0  0
    8.1920    2.6746    1.3414 Cl  0  0  0  0  0  0  0  0  0  0  0  0
    5.9741    1.9965   -0.1103 C   0  0  0  0  0  0  0  0  0  0  0  0
    4.6769    1.4969   -0.2606 C   0  0  0  0  0  0  0  0  0  0  0  0
    2.2486   -0.3172   -0.3869 C   0  0  0  0  0  0  0  0  0  0  0  0
    0.9497   -0.8091   -0.5390 C   0  0  0  0  0  0  0  0  0  0  0  0
   -1.9637   -1.7288    1.2345 N   0  0  0  0  0  0  0  0  0  0  0  0
   -3.1975   -2.2981    1.1440 C   0  0  0  0  0  0  0  0  0  0  0  0
   -3.6988   -3.0718    2.2042 C   0  0  0  0  0  0  0  0  0  0  0  0
   -4.9611   -3.6618    2.1111 C   0  0  0  0  0  0  0  0  0  0  0  0
   -5.7333   -3.4863    0.9618 C   0  0  0  0  0  0  0  0  0  0  0  0
   -5.2478   -2.7196   -0.1005 C   0  0  0  0  0  0  0  0  0  0  0  0
   -3.9755   -2.1188   -0.0209 C   0  0  0  0  0  0  0  0  0  0  0  0
   -3.4628   -1.3345   -1.0691 C   0  0  0  0  0  0  0  0  0  0  0  0
   -4.1583   -1.1395   -2.1050 O   0  0  0  0  0  0  0  0  0  0  0  0
  1  2  1  0
  2  3  1  0
  3  4  1  0
  4  5  2  0
  4  6  1  0
  6  7  4  0
  7  8  1  0
  8  9  4  0
  9 10  4  0
 10 11  4  0
 11 12  1  0
 12 13  4  0
 13 14  4  0
 14 15  4  0
 15 16  1  0
 15 17  4  0
 17 18  4  0
 11 19  4  0
 19 20  4  0
  7 21  4  0
 21 22  4  0
 22 23  4  0
 23 24  4  0
 24 25  4  0
 25 26  4  0
 26 27  4  0
 27 28  4  0
 28 29  2  0
 18 12  4  0
 20  8  4  0
 27 22  4  0
 28  6  4  0
M  END
>  <SMILES>  (13) 
CCOC(=O)c4c(c2ccc(c1ccc(Cl)cc1)cc2)[nH]c3ccccc3c4=O

>  <NumConformers>  (13) 
25

>  <EnergyUnits>  (13) 
RDKit_forcefield

>  <Total_Conformers>  (13) 
25

>  <Energy>  (13) 
69.260120612525455

>  <Energy_Unit>  (13) 
RDKit_forcefield

>  <Rank>  (13) 
13

>  <Conformer_Index>  (13) 
12

$$$$
WDH-1U-10
     RDKit          3D

 29 32  0  0  0  0  0  0  0  0999 V2000
   -0.9524    1.9976   -4.1298 C   0  0  0  0  0  0  0  0  0  0  0  0
   -0.3402    2.0912   -2.7374 C   0  0  0  0  0  0  0  0  0  0  0  0
   -0.7935    1.0180   -1.9158 O   0  0  0  0  0  0  0  0  0  0  0  0
   -2.0628    0.9763   -1.3251 C   0  0  0  0  0  0  0  0  0  0  0  0
   -2.8816    1.9174   -1.5156 O   0  0  0  0  0  0  0  0  0  0  0  0
   -2.4459   -0.1826   -0.4766 C   0  0  0  0  0  0  0  0  0  0  0  0
   -1.4929   -0.8481    0.3370 C   0  0  0  0  0  0  0  0  0  0  0  0
   -0.1073   -0.3448    0.4893 C   0  0  0  0  0  0  0  0  0  0  0  0
    0.9789   -1.1791    0.1913 C   0  0  0  0  0  0  0  0  0  0  0  0
    2.2882   -0.7097    0.3283 C   0  0  0  0  0  0  0  0  0  0  0  0
    2.5340    0.6013    0.7749 C   0  0  0  0  0  0  0  0  0  0  0  0
    3.9245    1.1047    0.9106 C   0  0  0  0  0  0  0  0  0  0  0  0
    4.9375    0.2783    1.4322 C   0  0  0  0  0  0  0  0  0  0  0  0
    6.2459    0.7547    1.5584 C   0  0  0  0  0  0  0  0  0  0  0  0
    6.5591    2.0589    1.1651 C   0  0  0  0  0  0  0  0  0  0  0  0
    8.2016    2.6539    1.3238 Cl  0  0  0  0  0  0  0  0  0  0  0  0
    5.5614    2.8883    0.6450 C   0  0  0  0  0  0  0  0  0  0  0  0
    4.2515    2.4163    0.5181 C   0  0  0  0  0  0  0  0  0  0  0  0
    1.4410    1.4280    1.0912 C   0  0  0  0  0  0  0  0  0  0  0  0
    0.1327    0.9565    0.9563 C   0  0  0  0  0  0  0  0  0  0  0  0
   -1.8557   -1.9621    1.0369 N   0  0  0  0  0  0  0  0  0  0  0  0
   -3.1255   -2.4538    1.0122 C   0  0  0  0  0  0  0  0  0  0  0  0
   -3.4562   -3.5962    1.7600 C   0  0  0  0  0  0  0  0  0  0  0  0
   -4.7591   -4.0984    1.7413 C   0  0  0  0  0  0  0  0  0  0  0  0
   -5.7424   -3.4668    0.9784 C   0  0  0  0  0  0  0  0  0  0  0  0
   -5.4282   -2.3297    0.2297 C   0  0  0  0  0  0  0  0  0  0  0  0
   -4.1178   -1.8113    0.2396 C   0  0  0  0  0  0  0  0  0  0  0  0
   -3.7683   -0.6742   -0.5098 C   0  0  0  0  0  0  0  0  0  0  0  0
   -4.6365   -0.1059   -1.2296 O   0  0  0  0  0  0  0  0  0  0  0  0
  1  2  1  0
  2  3  1  0
  3  4  1  0
  4  5  2  0
  4  6  1  0
  6  7  4  0
  7  8  1  0
  8  9  4  0
  9 10  4  0
 10 11  4  0
 11 12  1  0
 12 13  4  0
 13 14  4  0
 14 15  4  0
 15 16  1  0
 15 17  4  0
 17 18  4  0
 11 19  4  0
 19 20  4  0
  7 21  4  0
 21 22  4  0
 22 23  4  0
 23 24  4  0
 24 25  4  0
 25 26  4  0
 26 27  4  0
 27 28  4  0
 28 29  2  0
 18 12  4  0
 20  8  4  0
 27 22  4  0
 28  6  4  0
M  END
>  <SMILES>  (14) 
CCOC(=O)c4c(c2ccc(c1ccc(Cl)cc1)cc2)[nH]c3ccccc3c4=O

>  <NumConformers>  (14) 
25

>  <EnergyUnits>  (14) 
RDKit_forcefield

>  <Total_Conformers>  (14) 
25

>  <Energy>  (14) 
69.260120631020115

>  <Energy_Unit>  (14) 
RDKit_forcefield

>  <Rank>  (14) 
14

>  <Conformer_Index>  (14) 
13

$$$$
WDH-1U-10
     RDKit          3D

 29 32  0  0  0  0  0  0  0  0999 V2000
   -1.2668    2.6678   -3.6429 C   0  0  0  0  0  0  0  0  0  0  0  0
   -0.2155    1.8090   -2.9504 C   0  0  0  0  0  0  0  0  0  0  0  0
   -0.8041    1.0402   -1.9042 O   0  0  0  0  0  0  0  0  0  0  0  0
   -1.5650   -0.1150   -2.1246 C   0  0  0  0  0  0  0  0  0  0  0  0
   -1.7677   -0.5254   -3.3005 O   0  0  0  0  0  0  0  0  0  0  0  0
   -2.1388   -0.8539   -0.9695 C   0  0  0  0  0  0  0  0  0  0  0  0
   -1.4513   -0.9357    0.2689 C   0  0  0  0  0  0  0  0  0  0  0  0
   -0.0751   -0.4119    0.4350 C   0  0  0  0  0  0  0  0  0  0  0  0
    0.9692   -0.8766   -0.3791 C   0  0  0  0  0  0  0  0  0  0  0  0
    2.2643   -0.3770   -0.2198 C   0  0  0  0  0  0  0  0  0  0  0  0
    2.5410    0.5887    0.7647 C   0  0  0  0  0  0  0  0  0  0  0  0
    3.9157    1.1257    0.9303 C   0  0  0  0  0  0  0  0  0  0  0  0
    4.1232    2.4954    1.1795 C   0  0  0  0  0  0  0  0  0  0  0  0
    5.4182    2.9996    1.3335 C   0  0  0  0  0  0  0  0  0  0  0  0
    6.5199    2.1444    1.2417 C   0  0  0  0  0  0  0  0  0  0  0  0
    8.1434    2.7795    1.4358 Cl  0  0  0  0  0  0  0  0  0  0  0  0
    6.3260    0.7823    0.9949 C   0  0  0  0  0  0  0  0  0  0  0  0
    5.0328    0.2741    0.8393 C   0  0  0  0  0  0  0  0  0  0  0  0
    1.4943    1.0366    1.5909 C   0  0  0  0  0  0  0  0  0  0  0  0
    0.1994    0.5359    1.4305 C   0  0  0  0  0  0  0  0  0  0  0  0
   -2.0432   -1.5458    1.3365 N   0  0  0  0  0  0  0  0  0  0  0  0
   -3.2763   -2.1180    1.2542 C   0  0  0  0  0  0  0  0  0  0  0  0
   -3.8403   -2.7472    2.3767 C   0  0  0  0  0  0  0  0  0  0  0  0
   -5.1018   -3.3402    2.2928 C   0  0  0  0  0  0  0  0  0  0  0  0
   -5.8108   -3.3117    1.0909 C   0  0  0  0  0  0  0  0  0  0  0  0
   -5.2624   -2.6897   -0.0336 C   0  0  0  0  0  0  0  0  0  0  0  0
   -3.9902   -2.0878    0.0360 C   0  0  0  0  0  0  0  0  0  0  0  0
   -3.4152   -1.4466   -1.0753 C   0  0  0  0  0  0  0  0  0  0  0  0
   -4.0533   -1.3843   -2.1633 O   0  0  0  0  0  0  0  0  0  0  0  0
  1  2  1  0
  2  3  1  0
  3  4  1  0
  4  5  2  0
  4  6  1  0
  6  7  4  0
  7  8  1  0
  8  9  4  0
  9 10  4  0
 10 11  4  0
 11 12  1  0
 12 13  4  0
 13 14  4  0
 14 15  4  0
 15 16  1  0
 15 17  4  0
 17 18  4  0
 11 19  4  0
 19 20  4  0
  7 21  4  0
 21 22  4  0
 22 23  4  0
 23 24  4  0
 24 25  4  0
 25 26  4  0
 26 27  4  0
 27 28  4  0
 28 29  2  0
 18 12  4  0
 20  8  4  0
 27 22  4  0
 28  6  4  0
M  END
>  <SMILES>  (15) 
CCOC(=O)c4c(c2ccc(c1ccc(Cl)cc1)cc2)[nH]c3ccccc3c4=O

>  <NumConformers>  (15) 
25

>  <EnergyUnits>  (15) 
RDKit_forcefield

>  <Total_Conformers>  (15) 
25

>  <Energy>  (15) 
69.300269348587221

>  <Energy_Unit>  (15) 
RDKit_forcefield

>  <Rank>  (15) 
15

>  <Conformer_Index>  (15) 
14

$$$$
WDH-1U-10
     RDKit          3D

 29 32  0  0  0  0  0  0  0  0999 V2000
   -0.7498    1.5206   -4.3725 C   0  0  0  0  0  0  0  0  0  0  0  0
   -0.1988    1.7718   -2.9741 C   0  0  0  0  0  0  0  0  0  0  0  0
   -0.6966    0.8017   -2.0558 O   0  0  0  0  0  0  0  0  0  0  0  0
   -1.9915    0.8315   -1.5227 C   0  0  0  0  0  0  0  0  0  0  0  0
   -2.7925    1.7484   -1.8545 O   0  0  0  0  0  0  0  0  0  0  0  0
   -2.4228   -0.2237   -0.5687 C   0  0  0  0  0  0  0  0  0  0  0  0
   -1.5134   -0.7980    0.3564 C   0  0  0  0  0  0  0  0  0  0  0  0
   -0.1319   -0.2857    0.5152 C   0  0  0  0  0  0  0  0  0  0  0  0
    0.0976    1.0574    0.8508 C   0  0  0  0  0  0  0  0  0  0  0  0
    1.4024    1.5356    0.9964 C   0  0  0  0  0  0  0  0  0  0  0  0
    2.5016    0.6760    0.8202 C   0  0  0  0  0  0  0  0  0  0  0  0
    3.8891    1.1847    0.9678 C   0  0  0  0  0  0  0  0  0  0  0  0
    4.2140    2.0910    1.9947 C   0  0  0  0  0  0  0  0  0  0  0  0
    5.5208    2.5689    2.1310 C   0  0  0  0  0  0  0  0  0  0  0  0
    6.5175    2.1498    1.2451 C   0  0  0  0  0  0  0  0  0  0  0  0
    8.1561    2.7515    1.4179 Cl  0  0  0  0  0  0  0  0  0  0  0  0
    6.2064    1.2506    0.2212 C   0  0  0  0  0  0  0  0  0  0  0  0
    4.9011    0.7694    0.0819 C   0  0  0  0  0  0  0  0  0  0  0  0
    2.2652   -0.6739    0.5031 C   0  0  0  0  0  0  0  0  0  0  0  0
    0.9596   -1.1509    0.3578 C   0  0  0  0  0  0  0  0  0  0  0  0
   -1.9171   -1.8257    1.1585 N   0  0  0  0  0  0  0  0  0  0  0  0
   -3.1888   -2.3122    1.1307 C   0  0  0  0  0  0  0  0  0  0  0  0
   -3.5628   -3.3629    1.9851 C   0  0  0  0  0  0  0  0  0  0  0  0
   -4.8680   -3.8591    1.9628 C   0  0  0  0  0  0  0  0  0  0  0  0
   -5.8103   -3.3127    1.0903 C   0  0  0  0  0  0  0  0  0  0  0  0
   -5.4527   -2.2674    0.2350 C   0  0  0  0  0  0  0  0  0  0  0  0
   -4.1396   -1.7561    0.2470 C   0  0  0  0  0  0  0  0  0  0  0  0
   -3.7467   -0.7110   -0.6075 C   0  0  0  0  0  0  0  0  0  0  0  0
   -4.5766   -0.2231   -1.4249 O   0  0  0  0  0  0  0  0  0  0  0  0
  1  2  1  0
  2  3  1  0
  3  4  1  0
  4  5  2  0
  4  6  1  0
  6  7  4  0
  7  8  1  0
  8  9  4  0
  9 10  4  0
 10 11  4  0
 11 12  1  0
 12 13  4  0
 13 14  4  0
 14 15  4  0
 15 16  1  0
 15 17  4  0
 17 18  4  0
 11 19  4  0
 19 20  4  0
  7 21  4  0
 21 22  4  0
 22 23  4  0
 23 24  4  0
 24 25  4  0
 25 26  4  0
 26 27  4  0
 27 28  4  0
 28 29  2  0
 18 12  4  0
 20  8  4  0
 27 22  4  0
 28  6  4  0
M  END
>  <SMILES>  (16) 
CCOC(=O)c4c(c2ccc(c1ccc(Cl)cc1)cc2)[nH]c3ccccc3c4=O

>  <NumConformers>  (16) 
25

>  <EnergyUnits>  (16) 
RDKit_forcefield

>  <Total_Conformers>  (16) 
25

>  <Energy>  (16) 
69.30026937114711

>  <Energy_Unit>  (16) 
RDKit_forcefield

>  <Rank>  (16) 
16

>  <Conformer_Index>  (16) 
15

$$$$
WDH-1U-10
     RDKit          3D

 29 32  0  0  0  0  0  0  0  0999 V2000
   -0.0470    0.9565   -4.3012 C   0  0  0  0  0  0  0  0  0  0  0  0
   -1.5331    1.2359   -4.1050 C   0  0  0  0  0  0  0  0  0  0  0  0
   -2.0609    0.4285   -3.0547 O   0  0  0  0  0  0  0  0  0  0  0  0
   -1.8056    0.6673   -1.6991 C   0  0  0  0  0  0  0  0  0  0  0  0
   -1.1772    1.7022   -1.3432 O   0  0  0  0  0  0  0  0  0  0  0  0
   -2.2878   -0.2954   -0.6787 C   0  0  0  0  0  0  0  0  0  0  0  0
   -1.5049   -0.6252    0.4571 C   0  0  0  0  0  0  0  0  0  0  0  0
   -0.1133   -0.1370    0.6151 C   0  0  0  0  0  0  0  0  0  0  0  0
    0.2652    0.5411    1.7823 C   0  0  0  0  0  0  0  0  0  0  0  0
    1.5776    0.9946    1.9422 C   0  0  0  0  0  0  0  0  0  0  0  0
    2.5383    0.7700    0.9396 C   0  0  0  0  0  0  0  0  0  0  0  0
    3.9318    1.2565    1.1059 C   0  0  0  0  0  0  0  0  0  0  0  0
    4.5801    1.1599    2.3516 C   0  0  0  0  0  0  0  0  0  0  0  0
    5.8919    1.6184    2.5054 C   0  0  0  0  0  0  0  0  0  0  0  0
    6.5715    2.1787    1.4200 C   0  0  0  0  0  0  0  0  0  0  0  0
    8.2171    2.7536    1.6159 Cl  0  0  0  0  0  0  0  0  0  0  0  0
    5.9377    2.2802    0.1784 C   0  0  0  0  0  0  0  0  0  0  0  0
    4.6263    1.8221    0.0199 C   0  0  0  0  0  0  0  0  0  0  0  0
    2.1583    0.0750   -0.2225 C   0  0  0  0  0  0  0  0  0  0  0  0
    0.8468   -0.3802   -0.3798 C   0  0  0  0  0  0  0  0  0  0  0  0
   -2.0155   -1.4508    1.4166 N   0  0  0  0  0  0  0  0  0  0  0  0
   -3.2544   -2.0072    1.3110 C   0  0  0  0  0  0  0  0  0  0  0  0
   -3.7338   -2.8622    2.3174 C   0  0  0  0  0  0  0  0  0  0  0  0
   -5.0004   -3.4402    2.2073 C   0  0  0  0  0  0  0  0  0  0  0  0
   -5.7986   -3.1718    1.0943 C   0  0  0  0  0  0  0  0  0  0  0  0
   -5.3351   -2.3237    0.0853 C   0  0  0  0  0  0  0  0  0  0  0  0
   -4.0592   -1.7338    0.1827 C   0  0  0  0  0  0  0  0  0  0  0  0
   -3.5678   -0.8697   -0.8114 C   0  0  0  0  0  0  0  0  0  0  0  0
   -4.2836   -0.5921   -1.8142 O   0  0  0  0  0  0  0  0  0  0  0  0
  1  2  1  0
  2  3  1  0
  3  4  1  0
  4  5  2  0
  4  6  1  0
  6  7  4  0
  7  8  1  0
  8  9  4  0
  9 10  4  0
 10 11  4  0
 11 12  1  0
 12 13  4  0
 13 14  4  0
 14 15  4  0
 15 16  1  0
 15 17  4  0
 17 18  4  0
 11 19  4  0
 19 20  4  0
  7 21  4  0
 21 22  4  0
 22 23  4  0
 23 24  4  0
 24 25  4  0
 25 26  4  0
 26 27  4  0
 27 28  4  0
 28 29  2  0
 18 12  4  0
 20  8  4  0
 27 22  4  0
 28  6  4  0
M  END
>  <SMILES>  (17) 
CCOC(=O)c4c(c2ccc(c1ccc(Cl)cc1)cc2)[nH]c3ccccc3c4=O

>  <NumConformers>  (17) 
25

>  <EnergyUnits>  (17) 
RDKit_forcefield

>  <Total_Conformers>  (17) 
25

>  <Energy>  (17) 
69.485807330512117

>  <Energy_Unit>  (17) 
RDKit_forcefield

>  <Rank>  (17) 
17

>  <Conformer_Index>  (17) 
16

$$$$
WDH-1U-10
     RDKit          3D

 29 32  0  0  0  0  0  0  0  0999 V2000
   -0.7010    2.4660   -3.5840 C   0  0  0  0  0  0  0  0  0  0  0  0
   -1.5640    1.3071   -4.0711 C   0  0  0  0  0  0  0  0  0  0  0  0
   -2.1406    0.6125   -2.9673 O   0  0  0  0  0  0  0  0  0  0  0  0
   -1.4119   -0.2415   -2.1309 C   0  0  0  0  0  0  0  0  0  0  0  0
   -0.2123   -0.5250   -2.4015 O   0  0  0  0  0  0  0  0  0  0  0  0
   -2.0589   -0.8236   -0.9297 C   0  0  0  0  0  0  0  0  0  0  0  0
   -1.3553   -0.9704    0.2931 C   0  0  0  0  0  0  0  0  0  0  0  0
    0.0120   -0.4261    0.4777 C   0  0  0  0  0  0  0  0  0  0  0  0
    0.2782    0.9322    0.2438 C   0  0  0  0  0  0  0  0  0  0  0  0
    1.5662    1.4416    0.4268 C   0  0  0  0  0  0  0  0  0  0  0  0
    2.6099    0.6048    0.8611 C   0  0  0  0  0  0  0  0  0  0  0  0
    3.9799    1.1453    1.0531 C   0  0  0  0  0  0  0  0  0  0  0  0
    4.5204    2.0664    0.1360 C   0  0  0  0  0  0  0  0  0  0  0  0
    5.8105    2.5737    0.3179 C   0  0  0  0  0  0  0  0  0  0  0  0
    6.5754    2.1696    1.4157 C   0  0  0  0  0  0  0  0  0  0  0  0
    8.1934    2.8081    1.6418 Cl  0  0  0  0  0  0  0  0  0  0  0  0
    6.0490    1.2559    2.3332 C   0  0  0  0  0  0  0  0  0  0  0  0
    4.7597    0.7453    2.1546 C   0  0  0  0  0  0  0  0  0  0  0  0
    2.3340   -0.7514    1.1126 C   0  0  0  0  0  0  0  0  0  0  0  0
    1.0456   -1.2603    0.9264 C   0  0  0  0  0  0  0  0  0  0  0  0
   -1.9570   -1.5859    1.3524 N   0  0  0  0  0  0  0  0  0  0  0  0
   -3.2387   -2.0435    1.2938 C   0  0  0  0  0  0  0  0  0  0  0  0
   -3.8218   -2.6591    2.4139 C   0  0  0  0  0  0  0  0  0  0  0  0
   -5.1384   -3.1217    2.3586 C   0  0  0  0  0  0  0  0  0  0  0  0
   -5.8843   -2.9741    1.1882 C   0  0  0  0  0  0  0  0  0  0  0  0
   -5.3178   -2.3636    0.0663 C   0  0  0  0  0  0  0  0  0  0  0  0
   -3.9908   -1.8917    0.1076 C   0  0  0  0  0  0  0  0  0  0  0  0
   -3.3897   -1.2807   -1.0067 C   0  0  0  0  0  0  0  0  0  0  0  0
   -4.0373   -1.1605   -2.0843 O   0  0  0  0  0  0  0  0  0  0  0  0
  1  2  1  0
  2  3  1  0
  3  4  1  0
  4  5  2  0
  4  6  1  0
  6  7  4  0
  7  8  1  0
  8  9  4  0
  9 10  4  0
 10 11  4  0
 11 12  1  0
 12 13  4  0
 13 14  4  0
 14 15  4  0
 15 16  1  0
 15 17  4  0
 17 18  4  0
 11 19  4  0
 19 20  4  0
  7 21  4  0
 21 22  4  0
 22 23  4  0
 23 24  4  0
 24 25  4  0
 25 26  4  0
 26 27  4  0
 27 28  4  0
 28 29  2  0
 18 12  4  0
 20  8  4  0
 27 22  4  0
 28  6  4  0
M  END
>  <SMILES>  (18) 
CCOC(=O)c4c(c2ccc(c1ccc(Cl)cc1)cc2)[nH]c3ccccc3c4=O

>  <NumConformers>  (18) 
25

>  <EnergyUnits>  (18) 
RDKit_forcefield

>  <Total_Conformers>  (18) 
25

>  <Energy>  (18) 
69.485807336271122

>  <Energy_Unit>  (18) 
RDKit_forcefield

>  <Rank>  (18) 
18

>  <Conformer_Index>  (18) 
17

$$$$
WDH-1U-10
     RDKit          3D

 29 32  0  0  0  0  0  0  0  0999 V2000
    0.1496    0.4439   -4.3901 C   0  0  0  0  0  0  0  0  0  0  0  0
   -1.3391    0.7587   -4.2906 C   0  0  0  0  0  0  0  0  0  0  0  0
   -1.9210    0.0839   -3.1773 O   0  0  0  0  0  0  0  0  0  0  0  0
   -1.7191    0.4767   -1.8488 C   0  0  0  0  0  0  0  0  0  0  0  0
   -1.0910    1.5400   -1.5889 O   0  0  0  0  0  0  0  0  0  0  0  0
   -2.2580   -0.3554   -0.7452 C   0  0  0  0  0  0  0  0  0  0  0  0
   -1.5305   -0.5547    0.4560 C   0  0  0  0  0  0  0  0  0  0  0  0
   -0.1414   -0.0611    0.6193 C   0  0  0  0  0  0  0  0  0  0  0  0
    0.8599   -0.4288   -0.2932 C   0  0  0  0  0  0  0  0  0  0  0  0
    2.1692    0.0304   -0.1287 C   0  0  0  0  0  0  0  0  0  0  0  0
    2.5046    0.8567    0.9589 C   0  0  0  0  0  0  0  0  0  0  0  0
    3.8956    1.3475    1.1336 C   0  0  0  0  0  0  0  0  0  0  0  0
    4.1407    2.6693    1.5509 C   0  0  0  0  0  0  0  0  0  0  0  0
    5.4507    3.1298    1.7137 C   0  0  0  0  0  0  0  0  0  0  0  0
    6.5304    2.2781    1.4634 C   0  0  0  0  0  0  0  0  0  0  0  0
    8.1729    2.8584    1.6690 Cl  0  0  0  0  0  0  0  0  0  0  0  0
    6.2992    0.9634    1.0491 C   0  0  0  0  0  0  0  0  0  0  0  0
    4.9908    0.4990    0.8841 C   0  0  0  0  0  0  0  0  0  0  0  0
    1.5015    1.2083    1.8802 C   0  0  0  0  0  0  0  0  0  0  0  0
    0.1920    0.7487    1.7141 C   0  0  0  0  0  0  0  0  0  0  0  0
   -2.0934   -1.2581    1.4813 N   0  0  0  0  0  0  0  0  0  0  0  0
   -3.3332   -1.8142    1.3855 C   0  0  0  0  0  0  0  0  0  0  0  0
   -3.8673   -2.5415    2.4623 C   0  0  0  0  0  0  0  0  0  0  0  0
   -5.1349   -3.1192    2.3633 C   0  0  0  0  0  0  0  0  0  0  0  0
   -5.8797   -2.9779    1.1914 C   0  0  0  0  0  0  0  0  0  0  0  0
   -5.3614   -2.2577    0.1121 C   0  0  0  0  0  0  0  0  0  0  0  0
   -4.0838   -1.6696    0.1975 C   0  0  0  0  0  0  0  0  0  0  0  0
   -3.5381   -0.9321   -0.8677 C   0  0  0  0  0  0  0  0  0  0  0  0
   -4.2053   -0.7692   -1.9275 O   0  0  0  0  0  0  0  0  0  0  0  0
  1  2  1  0
  2  3  1  0
  3  4  1  0
  4  5  2  0
  4  6  1  0
  6  7  4  0
  7  8  1  0
  8  9  4  0
  9 10  4  0
 10 11  4  0
 11 12  1  0
 12 13  4  0
 13 14  4  0
 14 15  4  0
 15 16  1  0
 15 17  4  0
 17 18  4  0
 11 19  4  0
 19 20  4  0
  7 21  4  0
 21 22  4  0
 22 23  4  0
 23 24  4  0
 24 25  4  0
 25 26  4  0
 26 27  4  0
 27 28  4  0
 28 29  2  0
 18 12  4  0
 20  8  4  0
 27 22  4  0
 28  6  4  0
M  END
>  <SMILES>  (19) 
CCOC(=O)c4c(c2ccc(c1ccc(Cl)cc1)cc2)[nH]c3ccccc3c4=O

>  <NumConformers>  (19) 
25

>  <EnergyUnits>  (19) 
RDKit_forcefield

>  <Total_Conformers>  (19) 
25

>  <Energy>  (19) 
69.521927391328319

>  <Energy_Unit>  (19) 
RDKit_forcefield

>  <Rank>  (19) 
19

>  <Conformer_Index>  (19) 
18

$$$$
WDH-1U-10
     RDKit          3D

 29 32  0  0  0  0  0  0  0  0999 V2000
   -0.5571    2.1266   -3.8289 C   0  0  0  0  0  0  0  0  0  0  0  0
   -1.4110    0.9298   -4.2335 C   0  0  0  0  0  0  0  0  0  0  0  0
   -2.0314    0.3467   -3.0896 O   0  0  0  0  0  0  0  0  0  0  0  0
   -1.3394   -0.4272   -2.1503 C   0  0  0  0  0  0  0  0  0  0  0  0
   -0.1333   -0.7404   -2.3496 O   0  0  0  0  0  0  0  0  0  0  0  0
   -2.0333   -0.8902   -0.9236 C   0  0  0  0  0  0  0  0  0  0  0  0
   -1.3738   -0.9277    0.3315 C   0  0  0  0  0  0  0  0  0  0  0  0
   -0.0078   -0.3794    0.5131 C   0  0  0  0  0  0  0  0  0  0  0  0
    1.0008   -1.1770    1.0717 C   0  0  0  0  0  0  0  0  0  0  0  0
    2.2875   -0.6632    1.2559 C   0  0  0  0  0  0  0  0  0  0  0  0
    2.5860    0.6630    0.8943 C   0  0  0  0  0  0  0  0  0  0  0  0
    3.9539    1.2084    1.0872 C   0  0  0  0  0  0  0  0  0  0  0  0
    5.0850    0.4209    0.8009 C   0  0  0  0  0  0  0  0  0  0  0  0
    6.3720    0.9363    0.9820 C   0  0  0  0  0  0  0  0  0  0  0  0
    6.5458    2.2414    1.4512 C   0  0  0  0  0  0  0  0  0  0  0  0
    8.1616    2.8854    1.6781 Cl  0  0  0  0  0  0  0  0  0  0  0  0
    5.4301    3.0326    1.7393 C   0  0  0  0  0  0  0  0  0  0  0  0
    4.1414    2.5215    1.5587 C   0  0  0  0  0  0  0  0  0  0  0  0
    1.5668    1.4648    0.3498 C   0  0  0  0  0  0  0  0  0  0  0  0
    0.2808    0.9501    0.1667 C   0  0  0  0  0  0  0  0  0  0  0  0
   -2.0183   -1.4371    1.4216 N   0  0  0  0  0  0  0  0  0  0  0  0
   -3.3020   -1.8885    1.3607 C   0  0  0  0  0  0  0  0  0  0  0  0
   -3.9299   -2.3925    2.5120 C   0  0  0  0  0  0  0  0  0  0  0  0
   -5.2486   -2.8485    2.4536 C   0  0  0  0  0  0  0  0  0  0  0  0
   -5.9522   -2.8053    1.2490 C   0  0  0  0  0  0  0  0  0  0  0  0
   -5.3409   -2.3065    0.0958 C   0  0  0  0  0  0  0  0  0  0  0  0
   -4.0111   -1.8426    0.1398 C   0  0  0  0  0  0  0  0  0  0  0  0
   -3.3656   -1.3428   -1.0047 C   0  0  0  0  0  0  0  0  0  0  0  0
   -3.9744   -1.3191   -2.1109 O   0  0  0  0  0  0  0  0  0  0  0  0
  1  2  1  0
  2  3  1  0
  3  4  1  0
  4  5  2  0
  4  6  1  0
  6  7  4  0
  7  8  1  0
  8  9  4  0
  9 10  4  0
 10 11  4  0
 11 12  1  0
 12 13  4  0
 13 14  4  0
 14 15  4  0
 15 16  1  0
 15 17  4  0
 17 18  4  0
 11 19  4  0
 19 20  4  0
  7 21  4  0
 21 22  4  0
 22 23  4  0
 23 24  4  0
 24 25  4  0
 25 26  4  0
 26 27  4  0
 27 28  4  0
 28 29  2  0
 18 12  4  0
 20  8  4  0
 27 22  4  0
 28  6  4  0
M  END
>  <SMILES>  (20) 
CCOC(=O)c4c(c2ccc(c1ccc(Cl)cc1)cc2)[nH]c3ccccc3c4=O

>  <NumConformers>  (20) 
25

>  <EnergyUnits>  (20) 
RDKit_forcefield

>  <Total_Conformers>  (20) 
25

>  <Energy>  (20) 
69.52192743279474

>  <Energy_Unit>  (20) 
RDKit_forcefield

>  <Rank>  (20) 
20

>  <Conformer_Index>  (20) 
19

$$$$
WDH-1U-10
     RDKit          3D

 29 32  0  0  0  0  0  0  0  0999 V2000
   -1.6242    1.0071   -5.0145 C   0  0  0  0  0  0  0  0  0  0  0  0
   -1.6788    1.9129   -3.7899 C   0  0  0  0  0  0  0  0  0  0  0  0
   -2.1663    1.1973   -2.6569 O   0  0  0  0  0  0  0  0  0  0  0  0
   -1.3953    0.2791   -1.9333 C   0  0  0  0  0  0  0  0  0  0  0  0
   -0.1892    0.0785   -2.2456 O   0  0  0  0  0  0  0  0  0  0  0  0
   -2.0070   -0.4686   -0.8049 C   0  0  0  0  0  0  0  0  0  0  0  0
   -1.2675   -0.7936    0.3619 C   0  0  0  0  0  0  0  0  0  0  0  0
    0.1088   -0.2889    0.5831 C   0  0  0  0  0  0  0  0  0  0  0  0
    1.1504   -1.1870    0.8552 C   0  0  0  0  0  0  0  0  0  0  0  0
    2.4468   -0.7174    1.0834 C   0  0  0  0  0  0  0  0  0  0  0  0
    2.7230    0.6616    1.0528 C   0  0  0  0  0  0  0  0  0  0  0  0
    4.1009    1.1615    1.2921 C   0  0  0  0  0  0  0  0  0  0  0  0
    4.9097    0.5829    2.2884 C   0  0  0  0  0  0  0  0  0  0  0  0
    6.2064    1.0556    2.5118 C   0  0  0  0  0  0  0  0  0  0  0  0
    6.7114    2.1091    1.7445 C   0  0  0  0  0  0  0  0  0  0  0  0
    8.3388    2.6998    2.0266 Cl  0  0  0  0  0  0  0  0  0  0  0  0
    5.9177    2.6912    0.7522 C   0  0  0  0  0  0  0  0  0  0  0  0
    4.6201    2.2222    0.5260 C   0  0  0  0  0  0  0  0  0  0  0  0
    1.6716    1.5597    0.7950 C   0  0  0  0  0  0  0  0  0  0  0  0
    0.3756    1.0888    0.5686 C   0  0  0  0  0  0  0  0  0  0  0  0
   -1.8405   -1.5553    1.3388 N   0  0  0  0  0  0  0  0  0  0  0  0
   -3.1255   -1.9986    1.2544 C   0  0  0  0  0  0  0  0  0  0  0  0
   -3.6774   -2.7691    2.2915 C   0  0  0  0  0  0  0  0  0  0  0  0
   -4.9970   -3.2189    2.2103 C   0  0  0  0  0  0  0  0  0  0  0  0
   -5.7769   -2.9044    1.0964 C   0  0  0  0  0  0  0  0  0  0  0  0
   -5.2415   -2.1389    0.0574 C   0  0  0  0  0  0  0  0  0  0  0  0
   -3.9118   -1.6776    0.1261 C   0  0  0  0  0  0  0  0  0  0  0  0
   -3.3416   -0.9128   -0.9066 C   0  0  0  0  0  0  0  0  0  0  0  0
   -4.0212   -0.6424   -1.9362 O   0  0  0  0  0  0  0  0  0  0  0  0
  1  2  1  0
  2  3  1  0
  3  4  1  0
  4  5  2  0
  4  6  1  0
  6  7  4  0
  7  8  1  0
  8  9  4  0
  9 10  4  0
 10 11  4  0
 11 12  1  0
 12 13  4  0
 13 14  4  0
 14 15  4  0
 15 16  1  0
 15 17  4  0
 17 18  4  0
 11 19  4  0
 19 20  4  0
  7 21  4  0
 21 22  4  0
 22 23  4  0
 23 24  4  0
 24 25  4  0
 25 26  4  0
 26 27  4  0
 27 28  4  0
 28 29  2  0
 18 12  4  0
 20  8  4  0
 27 22  4  0
 28  6  4  0
M  END
>  <SMILES>  (21) 
CCOC(=O)c4c(c2ccc(c1ccc(Cl)cc1)cc2)[nH]c3ccccc3c4=O

>  <NumConformers>  (21) 
25

>  <EnergyUnits>  (21) 
RDKit_forcefield

>  <Total_Conformers>  (21) 
25

>  <Energy>  (21) 
69.912153069495204

>  <Energy_Unit>  (21) 
RDKit_forcefield

>  <Rank>  (21) 
21

>  <Conformer_Index>  (21) 
20

$$$$
WDH-1U-10
     RDKit          3D

 29 32  0  0  0  0  0  0  0  0999 V2000
   -1.9968    1.8775   -4.6135 C   0  0  0  0  0  0  0  0  0  0  0  0
   -1.1352    0.6431   -4.3748 C   0  0  0  0  0  0  0  0  0  0  0  0
   -1.6136   -0.0940   -3.2516 O   0  0  0  0  0  0  0  0  0  0  0  0
   -1.4040    0.2993   -1.9240 C   0  0  0  0  0  0  0  0  0  0  0  0
   -0.7259    1.3324   -1.6681 O   0  0  0  0  0  0  0  0  0  0  0  0
   -1.9949   -0.4969   -0.8180 C   0  0  0  0  0  0  0  0  0  0  0  0
   -1.3193   -0.6727    0.4175 C   0  0  0  0  0  0  0  0  0  0  0  0
    0.0678   -0.1929    0.6273 C   0  0  0  0  0  0  0  0  0  0  0  0
    0.3616    0.6556    1.7039 C   0  0  0  0  0  0  0  0  0  0  0  0
    1.6702    1.0969    1.9190 C   0  0  0  0  0  0  0  0  0  0  0  0
    2.7112    0.6890    1.0654 C   0  0  0  0  0  0  0  0  0  0  0  0
    4.1017    1.1598    1.2913 C   0  0  0  0  0  0  0  0  0  0  0  0
    4.9188    1.5245    0.2046 C   0  0  0  0  0  0  0  0  0  0  0  0
    6.2272    1.9682    0.4192 C   0  0  0  0  0  0  0  0  0  0  0  0
    6.7358    2.0522    1.7184 C   0  0  0  0  0  0  0  0  0  0  0  0
    8.3779    2.6086    1.9846 Cl  0  0  0  0  0  0  0  0  0  0  0  0
    5.9338    1.6923    2.8051 C   0  0  0  0  0  0  0  0  0  0  0  0
    4.6245    1.2490    2.5952 C   0  0  0  0  0  0  0  0  0  0  0  0
    2.4142   -0.1750   -0.0040 C   0  0  0  0  0  0  0  0  0  0  0  0
    1.1056   -0.6167   -0.2169 C   0  0  0  0  0  0  0  0  0  0  0  0
   -1.9330   -1.3392    1.4384 N   0  0  0  0  0  0  0  0  0  0  0  0
   -3.1764   -1.8798    1.3091 C   0  0  0  0  0  0  0  0  0  0  0  0
   -3.7630   -2.5692    2.3836 C   0  0  0  0  0  0  0  0  0  0  0  0
   -5.0349   -3.1303    2.2511 C   0  0  0  0  0  0  0  0  0  0  0  0
   -5.7318   -3.0097    1.0479 C   0  0  0  0  0  0  0  0  0  0  0  0
   -5.1610   -2.3270   -0.0293 C   0  0  0  0  0  0  0  0  0  0  0  0
   -3.8780   -1.7564    0.0898 C   0  0  0  0  0  0  0  0  0  0  0  0
   -3.2803   -1.0562   -0.9727 C   0  0  0  0  0  0  0  0  0  0  0  0
   -3.9064   -0.9106   -2.0597 O   0  0  0  0  0  0  0  0  0  0  0  0
  1  2  1  0
  2  3  1  0
  3  4  1  0
  4  5  2  0
  4  6  1  0
  6  7  4  0
  7  8  1  0
  8  9  4  0
  9 10  4  0
 10 11  4  0
 11 12  1  0
 12 13  4  0
 13 14  4  0
 14 15  4  0
 15 16  1  0
 15 17  4  0
 17 18  4  0
 11 19  4  0
 19 20  4  0
  7 21  4  0
 21 22  4  0
 22 23  4  0
 23 24  4  0
 24 25  4  0
 25 26  4  0
 26 27  4  0
 27 28  4  0
 28 29  2  0
 18 12  4  0
 20  8  4  0
 27 22  4  0
 28  6  4  0
M  END
>  <SMILES>  (22) 
CCOC(=O)c4c(c2ccc(c1ccc(Cl)cc1)cc2)[nH]c3ccccc3c4=O

>  <NumConformers>  (22) 
25

>  <EnergyUnits>  (22) 
RDKit_forcefield

>  <Total_Conformers>  (22) 
25

>  <Energy>  (22) 
69.912153078018321

>  <Energy_Unit>  (22) 
RDKit_forcefield

>  <Rank>  (22) 
22

>  <Conformer_Index>  (22) 
21

$$$$
WDH-1U-10
     RDKit          3D

 29 32  0  0  0  0  0  0  0  0999 V2000
   -2.1344    2.1743   -4.4183 C   0  0  0  0  0  0  0  0  0  0  0  0
   -1.2534    0.9372   -4.2901 C   0  0  0  0  0  0  0  0  0  0  0  0
   -1.6944    0.1159   -3.2110 O   0  0  0  0  0  0  0  0  0  0  0  0
   -1.4549    0.4162   -1.8643 C   0  0  0  0  0  0  0  0  0  0  0  0
   -0.7817    1.4369   -1.5521 O   0  0  0  0  0  0  0  0  0  0  0  0
   -2.0087   -0.4640   -0.8036 C   0  0  0  0  0  0  0  0  0  0  0  0
   -1.3002   -0.7179    0.3995 C   0  0  0  0  0  0  0  0  0  0  0  0
    0.0859   -0.2358    0.6091 C   0  0  0  0  0  0  0  0  0  0  0  0
    1.1077   -0.5872   -0.2864 C   0  0  0  0  0  0  0  0  0  0  0  0
    2.4163   -0.1457   -0.0734 C   0  0  0  0  0  0  0  0  0  0  0  0
    2.7293    0.6473    1.0453 C   0  0  0  0  0  0  0  0  0  0  0  0
    4.1194    1.1191    1.2716 C   0  0  0  0  0  0  0  0  0  0  0  0
    4.3651    2.4265    1.7318 C   0  0  0  0  0  0  0  0  0  0  0  0
    5.6744    2.8691    1.9435 C   0  0  0  0  0  0  0  0  0  0  0  0
    6.7526    2.0136    1.6998 C   0  0  0  0  0  0  0  0  0  0  0  0
    8.3941    2.5713    1.9667 Cl  0  0  0  0  0  0  0  0  0  0  0  0
    6.5207    0.7131    1.2431 C   0  0  0  0  0  0  0  0  0  0  0  0
    5.2131    0.2667    1.0292 C   0  0  0  0  0  0  0  0  0  0  0  0
    1.7045    0.9834    1.9483 C   0  0  0  0  0  0  0  0  0  0  0  0
    0.3963    0.5405    1.7345 C   0  0  0  0  0  0  0  0  0  0  0  0
   -1.8804   -1.4633    1.3848 N   0  0  0  0  0  0  0  0  0  0  0  0
   -3.1202   -2.0098    1.2477 C   0  0  0  0  0  0  0  0  0  0  0  0
   -3.6716   -2.7814    2.2843 C   0  0  0  0  0  0  0  0  0  0  0  0
   -4.9400   -3.3485    2.1431 C   0  0  0  0  0  0  0  0  0  0  0  0
   -5.6683   -3.1521    0.9689 C   0  0  0  0  0  0  0  0  0  0  0  0
   -5.1327   -2.3873   -0.0705 C   0  0  0  0  0  0  0  0  0  0  0  0
   -3.8538   -1.8095    0.0577 C   0  0  0  0  0  0  0  0  0  0  0  0
   -3.2911   -1.0279   -0.9664 C   0  0  0  0  0  0  0  0  0  0  0  0
   -3.9461   -0.8139   -2.0247 O   0  0  0  0  0  0  0  0  0  0  0  0
  1  2  1  0
  2  3  1  0
  3  4  1  0
  4  5  2  0
  4  6  1  0
  6  7  4  0
  7  8  1  0
  8  9  4  0
  9 10  4  0
 10 11  4  0
 11 12  1  0
 12 13  4  0
 13 14  4  0
 14 15  4  0
 15 16  1  0
 15 17  4  0
 17 18  4  0
 11 19  4  0
 19 20  4  0
  7 21  4  0
 21 22  4  0
 22 23  4  0
 23 24  4  0
 24 25  4  0
 25 26  4  0
 26 27  4  0
 27 28  4  0
 28 29  2  0
 18 12  4  0
 20  8  4  0
 27 22  4  0
 28  6  4  0
M  END
>  <SMILES>  (23) 
CCOC(=O)c4c(c2ccc(c1ccc(Cl)cc1)cc2)[nH]c3ccccc3c4=O

>  <NumConformers>  (23) 
25

>  <EnergyUnits>  (23) 
RDKit_forcefield

>  <Total_Conformers>  (23) 
25

>  <Energy>  (23) 
69.930138280335257

>  <Energy_Unit>  (23) 
RDKit_forcefield

>  <Rank>  (23) 
23

>  <Conformer_Index>  (23) 
22

$$$$
WDH-1U-10
     RDKit          3D

 29 32  0  0  0  0  0  0  0  0999 V2000
   -1.7989    1.4260   -4.8513 C   0  0  0  0  0  0  0  0  0  0  0  0
   -1.8274    2.2177   -3.5492 C   0  0  0  0  0  0  0  0  0  0  0  0
   -2.2679    1.3953   -2.4707 O   0  0  0  0  0  0  0  0  0  0  0  0
   -1.4609    0.4295   -1.8566 C   0  0  0  0  0  0  0  0  0  0  0  0
   -0.2625    0.2789   -2.2222 O   0  0  0  0  0  0  0  0  0  0  0  0
   -2.0254   -0.4269   -0.7821 C   0  0  0  0  0  0  0  0  0  0  0  0
   -1.2441   -0.8431    0.3271 C   0  0  0  0  0  0  0  0  0  0  0  0
    0.1315   -0.3376    0.5503 C   0  0  0  0  0  0  0  0  0  0  0  0
    1.1940   -1.2390    0.7048 C   0  0  0  0  0  0  0  0  0  0  0  0
    2.4906   -0.7703    0.9336 C   0  0  0  0  0  0  0  0  0  0  0  0
    2.7460    0.6101    1.0237 C   0  0  0  0  0  0  0  0  0  0  0  0
    4.1241    1.1085    1.2655 C   0  0  0  0  0  0  0  0  0  0  0  0
    5.2243    0.5100    0.6229 C   0  0  0  0  0  0  0  0  0  0  0  0
    6.5207    0.9811    0.8511 C   0  0  0  0  0  0  0  0  0  0  0  0
    6.7350    2.0527    1.7224 C   0  0  0  0  0  0  0  0  0  0  0  0
    8.3627    2.6414    2.0073 Cl  0  0  0  0  0  0  0  0  0  0  0  0
    5.6503    2.6546    2.3665 C   0  0  0  0  0  0  0  0  0  0  0  0
    4.3521    2.1873    2.1405 C   0  0  0  0  0  0  0  0  0  0  0  0
    1.6740    1.5100    0.8846 C   0  0  0  0  0  0  0  0  0  0  0  0
    0.3782    1.0400    0.6552 C   0  0  0  0  0  0  0  0  0  0  0  0
   -1.7747   -1.6990    1.2484 N   0  0  0  0  0  0  0  0  0  0  0  0
   -3.0554   -2.1543    1.1641 C   0  0  0  0  0  0  0  0  0  0  0  0
   -3.5628   -3.0241    2.1439 C   0  0  0  0  0  0  0  0  0  0  0  0
   -4.8780   -3.4868    2.0631 C   0  0  0  0  0  0  0  0  0  0  0  0
   -5.6977   -3.0866    1.0068 C   0  0  0  0  0  0  0  0  0  0  0  0
   -5.2069   -2.2219    0.0253 C   0  0  0  0  0  0  0  0  0  0  0  0
   -3.8821   -1.7464    0.0942 C   0  0  0  0  0  0  0  0  0  0  0  0
   -3.3563   -0.8825   -0.8822 C   0  0  0  0  0  0  0  0  0  0  0  0
   -4.0725   -0.5321   -1.8617 O   0  0  0  0  0  0  0  0  0  0  0  0
  1  2  1  0
  2  3  1  0
  3  4  1  0
  4  5  2  0
  4  6  1  0
  6  7  4  0
  7  8  1  0
  8  9  4  0
  9 10  4  0
 10 11  4  0
 11 12  1  0
 12 13  4  0
 13 14  4  0
 14 15  4  0
 15 16  1  0
 15 17  4  0
 17 18  4  0
 11 19  4  0
 19 20  4  0
  7 21  4  0
 21 22  4  0
 22 23  4  0
 23 24  4  0
 24 25  4  0
 25 26  4  0
 26 27  4  0
 27 28  4  0
 28 29  2  0
 18 12  4  0
 20  8  4  0
 27 22  4  0
 28  6  4  0
M  END
>  <SMILES>  (24) 
CCOC(=O)c4c(c2ccc(c1ccc(Cl)cc1)cc2)[nH]c3ccccc3c4=O

>  <NumConformers>  (24) 
25

>  <EnergyUnits>  (24) 
RDKit_forcefield

>  <Total_Conformers>  (24) 
25

>  <Energy>  (24) 
69.930138280451118

>  <Energy_Unit>  (24) 
RDKit_forcefield

>  <Rank>  (24) 
24

>  <Conformer_Index>  (24) 
23

$$$$
WDH-1U-10
     RDKit          3D

 29 32  0  0  0  0  0  0  0  0999 V2000
   -0.2488    2.3778   -2.7834 C   0  0  0  0  0  0  0  0  0  0  0  0
   -1.1776    1.2184   -2.4630 C   0  0  0  0  0  0  0  0  0  0  0  0
   -0.5237   -0.0110   -2.7701 O   0  0  0  0  0  0  0  0  0  0  0  0
   -1.0047   -1.2654   -2.3768 C   0  0  0  0  0  0  0  0  0  0  0  0
   -0.6858   -2.2783   -3.0541 O   0  0  0  0  0  0  0  0  0  0  0  0
   -1.8422   -1.4431   -1.1665 C   0  0  0  0  0  0  0  0  0  0  0  0
   -1.3867   -1.0337    0.1115 C   0  0  0  0  0  0  0  0  0  0  0  0
   -0.0295   -0.4641    0.3091 C   0  0  0  0  0  0  0  0  0  0  0  0
    0.1229    0.7726    0.9532 C   0  0  0  0  0  0  0  0  0  0  0  0
    1.3922    1.3321    1.1196 C   0  0  0  0  0  0  0  0  0  0  0  0
    2.5365    0.6574    0.6577 C   0  0  0  0  0  0  0  0  0  0  0  0
    3.8854    1.2592    0.8194 C   0  0  0  0  0  0  0  0  0  0  0  0
    4.2267    1.9473    1.9991 C   0  0  0  0  0  0  0  0  0  0  0  0
    5.4941    2.5201    2.1444 C   0  0  0  0  0  0  0  0  0  0  0  0
    6.4355    2.4131    1.1163 C   0  0  0  0  0  0  0  0  0  0  0  0
    8.0238    3.1347    1.3004 Cl  0  0  0  0  0  0  0  0  0  0  0  0
    6.1098    1.7283   -0.0573 C   0  0  0  0  0  0  0  0  0  0  0  0
    4.8435    1.1548   -0.2074 C   0  0  0  0  0  0  0  0  0  0  0  0
    2.3821   -0.5961    0.0380 C   0  0  0  0  0  0  0  0  0  0  0  0
    1.1119   -1.1526   -0.1310 C   0  0  0  0  0  0  0  0  0  0  0  0
   -2.2056   -1.1657    1.1951 N   0  0  0  0  0  0  0  0  0  0  0  0
   -3.4499   -1.7137    1.1019 C   0  0  0  0  0  0  0  0  0  0  0  0
   -4.2543   -1.8415    2.2467 C   0  0  0  0  0  0  0  0  0  0  0  0
   -5.5261   -2.4113    2.1551 C   0  0  0  0  0  0  0  0  0  0  0  0
   -6.0070   -2.8565    0.9224 C   0  0  0  0  0  0  0  0  0  0  0  0
   -5.2188   -2.7351   -0.2257 C   0  0  0  0  0  0  0  0  0  0  0  0
   -3.9332   -2.1642   -0.1479 C   0  0  0  0  0  0  0  0  0  0  0  0
   -3.1176   -2.0241   -1.2844 C   0  0  0  0  0  0  0  0  0  0  0  0
   -3.5334   -2.4046   -2.4146 O   0  0  0  0  0  0  0  0  0  0  0  0
  1  2  1  0
  2  3  1  0
  3  4  1  0
  4  5  2  0
  4  6  1  0
  6  7  4  0
  7  8  1  0
  8  9  4  0
  9 10  4  0
 10 11  4  0
 11 12  1  0
 12 13  4  0
 13 14  4  0
 14 15  4  0
 15 16  1  0
 15 17  4  0
 17 18  4  0
 11 19  4  0
 19 20  4  0
  7 21  4  0
 21 22  4  0
 22 23  4  0
 23 24  4  0
 24 25  4  0
 25 26  4  0
 26 27  4  0
 27 28  4  0
 28 29  2  0
 18 12  4  0
 20  8  4  0
 27 22  4  0
 28  6  4  0
M  END
>  <SMILES>  (25) 
CCOC(=O)c4c(c2ccc(c1ccc(Cl)cc1)cc2)[nH]c3ccccc3c4=O

>  <NumConformers>  (25) 
25

>  <EnergyUnits>  (25) 
RDKit_forcefield

>  <Total_Conformers>  (25) 
25

>  <Energy>  (25) 
71.511635415894503

>  <Energy_Unit>  (25) 
RDKit_forcefield

>  <Rank>  (25) 
25

>  <Conformer_Index>  (25) 
24

$$$$
